* NGSPICE file created from OQPSK_RCOSINE_ALL.ext - technology: gf180mcuD

* Black-box entry subcircuit for gf180mcu_fd_sc_mcu7t5v0__nor2_1 abstract view
.subckt gf180mcu_fd_sc_mcu7t5v0__nor2_1 A1 A2 ZN VDD VNW VPW VSS
.ends

* Black-box entry subcircuit for gf180mcu_fd_sc_mcu7t5v0__aoi21_2 abstract view
.subckt gf180mcu_fd_sc_mcu7t5v0__aoi21_2 A1 A2 B ZN VDD VNW VPW VSS
.ends

* Black-box entry subcircuit for gf180mcu_fd_sc_mcu7t5v0__fillcap_8 abstract view
.subckt gf180mcu_fd_sc_mcu7t5v0__fillcap_8 VDD VNW VPW VSS
.ends

* Black-box entry subcircuit for gf180mcu_fd_sc_mcu7t5v0__fillcap_16 abstract view
.subckt gf180mcu_fd_sc_mcu7t5v0__fillcap_16 VDD VNW VPW VSS
.ends

* Black-box entry subcircuit for gf180mcu_fd_sc_mcu7t5v0__fill_1 abstract view
.subckt gf180mcu_fd_sc_mcu7t5v0__fill_1 VDD VNW VPW VSS
.ends

* Black-box entry subcircuit for gf180mcu_fd_sc_mcu7t5v0__fill_2 abstract view
.subckt gf180mcu_fd_sc_mcu7t5v0__fill_2 VDD VNW VPW VSS
.ends

* Black-box entry subcircuit for gf180mcu_fd_sc_mcu7t5v0__antenna abstract view
.subckt gf180mcu_fd_sc_mcu7t5v0__antenna I VDD VNW VPW VSS
.ends

* Black-box entry subcircuit for gf180mcu_fd_sc_mcu7t5v0__fillcap_32 abstract view
.subckt gf180mcu_fd_sc_mcu7t5v0__fillcap_32 VDD VNW VPW VSS
.ends

* Black-box entry subcircuit for gf180mcu_fd_sc_mcu7t5v0__filltie abstract view
.subckt gf180mcu_fd_sc_mcu7t5v0__filltie VDD VSS
.ends

* Black-box entry subcircuit for gf180mcu_fd_sc_mcu7t5v0__xnor2_1 abstract view
.subckt gf180mcu_fd_sc_mcu7t5v0__xnor2_1 A1 A2 ZN VDD VNW VPW VSS
.ends

* Black-box entry subcircuit for gf180mcu_fd_sc_mcu7t5v0__or3_1 abstract view
.subckt gf180mcu_fd_sc_mcu7t5v0__or3_1 A1 A2 A3 Z VDD VNW VPW VSS
.ends

* Black-box entry subcircuit for gf180mcu_fd_sc_mcu7t5v0__clkbuf_2 abstract view
.subckt gf180mcu_fd_sc_mcu7t5v0__clkbuf_2 I Z VDD VNW VPW VSS
.ends

* Black-box entry subcircuit for gf180mcu_fd_sc_mcu7t5v0__buf_1 abstract view
.subckt gf180mcu_fd_sc_mcu7t5v0__buf_1 I Z VDD VNW VPW VSS
.ends

* Black-box entry subcircuit for gf180mcu_fd_sc_mcu7t5v0__nand2_1 abstract view
.subckt gf180mcu_fd_sc_mcu7t5v0__nand2_1 A1 A2 ZN VDD VNW VPW VSS
.ends

* Black-box entry subcircuit for gf180mcu_fd_sc_mcu7t5v0__oai221_4 abstract view
.subckt gf180mcu_fd_sc_mcu7t5v0__oai221_4 A1 A2 B1 B2 C ZN VDD VNW VPW VSS
.ends

* Black-box entry subcircuit for gf180mcu_fd_sc_mcu7t5v0__buf_2 abstract view
.subckt gf180mcu_fd_sc_mcu7t5v0__buf_2 I Z VDD VNW VPW VSS
.ends

* Black-box entry subcircuit for gf180mcu_fd_sc_mcu7t5v0__nor3_1 abstract view
.subckt gf180mcu_fd_sc_mcu7t5v0__nor3_1 A1 A2 A3 ZN VDD VNW VPW VSS
.ends

* Black-box entry subcircuit for gf180mcu_fd_sc_mcu7t5v0__and3_1 abstract view
.subckt gf180mcu_fd_sc_mcu7t5v0__and3_1 A1 A2 A3 Z VDD VNW VPW VSS
.ends

* Black-box entry subcircuit for gf180mcu_fd_sc_mcu7t5v0__nor3_2 abstract view
.subckt gf180mcu_fd_sc_mcu7t5v0__nor3_2 A1 A2 A3 ZN VDD VNW VPW VSS
.ends

* Black-box entry subcircuit for gf180mcu_fd_sc_mcu7t5v0__nand2_2 abstract view
.subckt gf180mcu_fd_sc_mcu7t5v0__nand2_2 A1 A2 ZN VDD VNW VPW VSS
.ends

* Black-box entry subcircuit for gf180mcu_fd_sc_mcu7t5v0__aoi211_4 abstract view
.subckt gf180mcu_fd_sc_mcu7t5v0__aoi211_4 A1 A2 B C ZN VDD VNW VPW VSS
.ends

* Black-box entry subcircuit for gf180mcu_fd_sc_mcu7t5v0__fillcap_4 abstract view
.subckt gf180mcu_fd_sc_mcu7t5v0__fillcap_4 VDD VNW VPW VSS
.ends

* Black-box entry subcircuit for gf180mcu_fd_sc_mcu7t5v0__oai21_1 abstract view
.subckt gf180mcu_fd_sc_mcu7t5v0__oai21_1 A1 A2 B ZN VDD VNW VPW VSS
.ends

* Black-box entry subcircuit for gf180mcu_fd_sc_mcu7t5v0__endcap abstract view
.subckt gf180mcu_fd_sc_mcu7t5v0__endcap VDD VSS
.ends

* Black-box entry subcircuit for gf180mcu_fd_sc_mcu7t5v0__xor2_1 abstract view
.subckt gf180mcu_fd_sc_mcu7t5v0__xor2_1 A1 A2 Z VDD VNW VPW VSS
.ends

* Black-box entry subcircuit for gf180mcu_fd_sc_mcu7t5v0__nor4_4 abstract view
.subckt gf180mcu_fd_sc_mcu7t5v0__nor4_4 A1 A2 A3 A4 ZN VDD VNW VPW VSS
.ends

* Black-box entry subcircuit for gf180mcu_fd_sc_mcu7t5v0__aoi21_1 abstract view
.subckt gf180mcu_fd_sc_mcu7t5v0__aoi21_1 A1 A2 B ZN VDD VNW VPW VSS
.ends

* Black-box entry subcircuit for gf180mcu_fd_sc_mcu7t5v0__nor3_4 abstract view
.subckt gf180mcu_fd_sc_mcu7t5v0__nor3_4 A1 A2 A3 ZN VDD VNW VPW VSS
.ends

* Black-box entry subcircuit for gf180mcu_fd_sc_mcu7t5v0__oai21_2 abstract view
.subckt gf180mcu_fd_sc_mcu7t5v0__oai21_2 A1 A2 B ZN VDD VNW VPW VSS
.ends

* Black-box entry subcircuit for gf180mcu_fd_sc_mcu7t5v0__oai211_2 abstract view
.subckt gf180mcu_fd_sc_mcu7t5v0__oai211_2 A1 A2 B C ZN VDD VNW VPW VSS
.ends

* Black-box entry subcircuit for gf180mcu_fd_sc_mcu7t5v0__buf_8 abstract view
.subckt gf180mcu_fd_sc_mcu7t5v0__buf_8 I Z VDD VNW VPW VSS
.ends

* Black-box entry subcircuit for gf180mcu_fd_sc_mcu7t5v0__mux2_2 abstract view
.subckt gf180mcu_fd_sc_mcu7t5v0__mux2_2 I0 I1 S Z VDD VNW VPW VSS
.ends

* Black-box entry subcircuit for gf180mcu_fd_sc_mcu7t5v0__oai31_2 abstract view
.subckt gf180mcu_fd_sc_mcu7t5v0__oai31_2 A1 A2 A3 B ZN VDD VNW VPW VSS
.ends

* Black-box entry subcircuit for gf180mcu_fd_sc_mcu7t5v0__aoi22_1 abstract view
.subckt gf180mcu_fd_sc_mcu7t5v0__aoi22_1 A1 A2 B1 B2 ZN VDD VNW VPW VSS
.ends

* Black-box entry subcircuit for gf180mcu_fd_sc_mcu7t5v0__fillcap_64 abstract view
.subckt gf180mcu_fd_sc_mcu7t5v0__fillcap_64 VDD VNW VPW VSS
.ends

* Black-box entry subcircuit for gf180mcu_fd_sc_mcu7t5v0__clkbuf_1 abstract view
.subckt gf180mcu_fd_sc_mcu7t5v0__clkbuf_1 I Z VDD VNW VPW VSS
.ends

* Black-box entry subcircuit for gf180mcu_fd_sc_mcu7t5v0__oai32_2 abstract view
.subckt gf180mcu_fd_sc_mcu7t5v0__oai32_2 A1 A2 A3 B1 B2 ZN VDD VNW VPW VSS
.ends

* Black-box entry subcircuit for gf180mcu_fd_sc_mcu7t5v0__nand3_4 abstract view
.subckt gf180mcu_fd_sc_mcu7t5v0__nand3_4 A1 A2 A3 ZN VDD VNW VPW VSS
.ends

* Black-box entry subcircuit for gf180mcu_fd_sc_mcu7t5v0__oai222_4 abstract view
.subckt gf180mcu_fd_sc_mcu7t5v0__oai222_4 A1 A2 B1 B2 C1 C2 ZN VDD VNW VPW VSS
.ends

* Black-box entry subcircuit for gf180mcu_fd_sc_mcu7t5v0__nor2_2 abstract view
.subckt gf180mcu_fd_sc_mcu7t5v0__nor2_2 A1 A2 ZN VDD VNW VPW VSS
.ends

* Black-box entry subcircuit for gf180mcu_fd_sc_mcu7t5v0__aoi222_4 abstract view
.subckt gf180mcu_fd_sc_mcu7t5v0__aoi222_4 A1 A2 B1 B2 C1 C2 ZN VDD VNW VPW VSS
.ends

* Black-box entry subcircuit for gf180mcu_fd_sc_mcu7t5v0__xor3_1 abstract view
.subckt gf180mcu_fd_sc_mcu7t5v0__xor3_1 A1 A2 A3 Z VDD VNW VPW VSS
.ends

* Black-box entry subcircuit for gf180mcu_fd_sc_mcu7t5v0__or3_2 abstract view
.subckt gf180mcu_fd_sc_mcu7t5v0__or3_2 A1 A2 A3 Z VDD VNW VPW VSS
.ends

* Black-box entry subcircuit for gf180mcu_fd_sc_mcu7t5v0__nand3_2 abstract view
.subckt gf180mcu_fd_sc_mcu7t5v0__nand3_2 A1 A2 A3 ZN VDD VNW VPW VSS
.ends

* Black-box entry subcircuit for gf180mcu_fd_sc_mcu7t5v0__dffrnq_1 abstract view
.subckt gf180mcu_fd_sc_mcu7t5v0__dffrnq_1 D RN CLK Q VDD VNW VPW VSS
.ends

* Black-box entry subcircuit for gf180mcu_fd_sc_mcu7t5v0__clkinv_1 abstract view
.subckt gf180mcu_fd_sc_mcu7t5v0__clkinv_1 I ZN VDD VNW VPW VSS
.ends

* Black-box entry subcircuit for gf180mcu_fd_sc_mcu7t5v0__aoi22_2 abstract view
.subckt gf180mcu_fd_sc_mcu7t5v0__aoi22_2 A1 A2 B1 B2 ZN VDD VNW VPW VSS
.ends

* Black-box entry subcircuit for gf180mcu_fd_sc_mcu7t5v0__clkbuf_3 abstract view
.subckt gf180mcu_fd_sc_mcu7t5v0__clkbuf_3 I Z VDD VNW VPW VSS
.ends

* Black-box entry subcircuit for gf180mcu_fd_sc_mcu7t5v0__nor2_4 abstract view
.subckt gf180mcu_fd_sc_mcu7t5v0__nor2_4 A1 A2 ZN VDD VNW VPW VSS
.ends

* Black-box entry subcircuit for gf180mcu_fd_sc_mcu7t5v0__or4_1 abstract view
.subckt gf180mcu_fd_sc_mcu7t5v0__or4_1 A1 A2 A3 A4 Z VDD VNW VPW VSS
.ends

* Black-box entry subcircuit for gf180mcu_fd_sc_mcu7t5v0__aoi221_4 abstract view
.subckt gf180mcu_fd_sc_mcu7t5v0__aoi221_4 A1 A2 B1 B2 C ZN VDD VNW VPW VSS
.ends

* Black-box entry subcircuit for gf180mcu_fd_sc_mcu7t5v0__oai31_1 abstract view
.subckt gf180mcu_fd_sc_mcu7t5v0__oai31_1 A1 A2 A3 B ZN VDD VNW VPW VSS
.ends

* Black-box entry subcircuit for gf180mcu_fd_sc_mcu7t5v0__inv_1 abstract view
.subckt gf180mcu_fd_sc_mcu7t5v0__inv_1 I ZN VDD VNW VPW VSS
.ends

* Black-box entry subcircuit for gf180mcu_fd_sc_mcu7t5v0__xor2_2 abstract view
.subckt gf180mcu_fd_sc_mcu7t5v0__xor2_2 A1 A2 Z VDD VNW VPW VSS
.ends

* Black-box entry subcircuit for gf180mcu_fd_sc_mcu7t5v0__nand3_1 abstract view
.subckt gf180mcu_fd_sc_mcu7t5v0__nand3_1 A1 A2 A3 ZN VDD VNW VPW VSS
.ends

* Black-box entry subcircuit for gf180mcu_fd_sc_mcu7t5v0__oai32_1 abstract view
.subckt gf180mcu_fd_sc_mcu7t5v0__oai32_1 A1 A2 A3 B1 B2 ZN VDD VNW VPW VSS
.ends

* Black-box entry subcircuit for gf180mcu_fd_sc_mcu7t5v0__dffsnq_2 abstract view
.subckt gf180mcu_fd_sc_mcu7t5v0__dffsnq_2 D SETN CLK Q VDD VNW VPW VSS
.ends

* Black-box entry subcircuit for gf180mcu_fd_sc_mcu7t5v0__aoi211_2 abstract view
.subckt gf180mcu_fd_sc_mcu7t5v0__aoi211_2 A1 A2 B C ZN VDD VNW VPW VSS
.ends

* Black-box entry subcircuit for gf180mcu_fd_sc_mcu7t5v0__aoi21_4 abstract view
.subckt gf180mcu_fd_sc_mcu7t5v0__aoi21_4 A1 A2 B ZN VDD VNW VPW VSS
.ends

* Black-box entry subcircuit for gf180mcu_fd_sc_mcu7t5v0__oai21_4 abstract view
.subckt gf180mcu_fd_sc_mcu7t5v0__oai21_4 A1 A2 B ZN VDD VNW VPW VSS
.ends

* Black-box entry subcircuit for gf180mcu_fd_sc_mcu7t5v0__and2_1 abstract view
.subckt gf180mcu_fd_sc_mcu7t5v0__and2_1 A1 A2 Z VDD VNW VPW VSS
.ends

* Black-box entry subcircuit for gf180mcu_fd_sc_mcu7t5v0__oai211_4 abstract view
.subckt gf180mcu_fd_sc_mcu7t5v0__oai211_4 A1 A2 B C ZN VDD VNW VPW VSS
.ends

* Black-box entry subcircuit for gf180mcu_fd_sc_mcu7t5v0__and2_4 abstract view
.subckt gf180mcu_fd_sc_mcu7t5v0__and2_4 A1 A2 Z VDD VNW VPW VSS
.ends

* Black-box entry subcircuit for gf180mcu_fd_sc_mcu7t5v0__oai221_2 abstract view
.subckt gf180mcu_fd_sc_mcu7t5v0__oai221_2 A1 A2 B1 B2 C ZN VDD VNW VPW VSS
.ends

* Black-box entry subcircuit for gf180mcu_fd_sc_mcu7t5v0__or2_1 abstract view
.subckt gf180mcu_fd_sc_mcu7t5v0__or2_1 A1 A2 Z VDD VNW VPW VSS
.ends

* Black-box entry subcircuit for gf180mcu_fd_sc_mcu7t5v0__oai211_1 abstract view
.subckt gf180mcu_fd_sc_mcu7t5v0__oai211_1 A1 A2 B C ZN VDD VNW VPW VSS
.ends

* Black-box entry subcircuit for gf180mcu_fd_sc_mcu7t5v0__nand4_4 abstract view
.subckt gf180mcu_fd_sc_mcu7t5v0__nand4_4 A1 A2 A3 A4 ZN VDD VNW VPW VSS
.ends

* Black-box entry subcircuit for gf180mcu_fd_sc_mcu7t5v0__clkinv_2 abstract view
.subckt gf180mcu_fd_sc_mcu7t5v0__clkinv_2 I ZN VDD VNW VPW VSS
.ends

* Black-box entry subcircuit for gf180mcu_fd_sc_mcu7t5v0__tiel abstract view
.subckt gf180mcu_fd_sc_mcu7t5v0__tiel ZN VDD VNW VPW VSS
.ends

* Black-box entry subcircuit for gf180mcu_fd_sc_mcu7t5v0__oai22_2 abstract view
.subckt gf180mcu_fd_sc_mcu7t5v0__oai22_2 A1 A2 B1 B2 ZN VDD VNW VPW VSS
.ends

* Black-box entry subcircuit for gf180mcu_fd_sc_mcu7t5v0__aoi22_4 abstract view
.subckt gf180mcu_fd_sc_mcu7t5v0__aoi22_4 A1 A2 B1 B2 ZN VDD VNW VPW VSS
.ends

* Black-box entry subcircuit for gf180mcu_fd_sc_mcu7t5v0__oai22_4 abstract view
.subckt gf180mcu_fd_sc_mcu7t5v0__oai22_4 A1 A2 B1 B2 ZN VDD VNW VPW VSS
.ends

* Black-box entry subcircuit for gf180mcu_fd_sc_mcu7t5v0__oai32_4 abstract view
.subckt gf180mcu_fd_sc_mcu7t5v0__oai32_4 A1 A2 A3 B1 B2 ZN VDD VNW VPW VSS
.ends

* Black-box entry subcircuit for gf180mcu_fd_sc_mcu7t5v0__nand2_4 abstract view
.subckt gf180mcu_fd_sc_mcu7t5v0__nand2_4 A1 A2 ZN VDD VNW VPW VSS
.ends

* Black-box entry subcircuit for gf180mcu_fd_sc_mcu7t5v0__latrnq_1 abstract view
.subckt gf180mcu_fd_sc_mcu7t5v0__latrnq_1 D E RN Q VDD VNW VPW VSS
.ends

* Black-box entry subcircuit for gf180mcu_fd_sc_mcu7t5v0__oai22_1 abstract view
.subckt gf180mcu_fd_sc_mcu7t5v0__oai22_1 A1 A2 B1 B2 ZN VDD VNW VPW VSS
.ends

* Black-box entry subcircuit for gf180mcu_fd_sc_mcu7t5v0__xnor3_1 abstract view
.subckt gf180mcu_fd_sc_mcu7t5v0__xnor3_1 A1 A2 A3 ZN VDD VNW VPW VSS
.ends

* Black-box entry subcircuit for gf180mcu_fd_sc_mcu7t5v0__and2_2 abstract view
.subckt gf180mcu_fd_sc_mcu7t5v0__and2_2 A1 A2 Z VDD VNW VPW VSS
.ends

* Black-box entry subcircuit for gf180mcu_fd_sc_mcu7t5v0__nor4_2 abstract view
.subckt gf180mcu_fd_sc_mcu7t5v0__nor4_2 A1 A2 A3 A4 ZN VDD VNW VPW VSS
.ends

* Black-box entry subcircuit for gf180mcu_fd_sc_mcu7t5v0__mux2_4 abstract view
.subckt gf180mcu_fd_sc_mcu7t5v0__mux2_4 I0 I1 S Z VDD VNW VPW VSS
.ends

* Black-box entry subcircuit for gf180mcu_fd_sc_mcu7t5v0__or2_2 abstract view
.subckt gf180mcu_fd_sc_mcu7t5v0__or2_2 A1 A2 Z VDD VNW VPW VSS
.ends

* Black-box entry subcircuit for gf180mcu_fd_sc_mcu7t5v0__tieh abstract view
.subckt gf180mcu_fd_sc_mcu7t5v0__tieh Z VDD VNW VPW VSS
.ends

* Black-box entry subcircuit for gf180mcu_fd_sc_mcu7t5v0__nand4_2 abstract view
.subckt gf180mcu_fd_sc_mcu7t5v0__nand4_2 A1 A2 A3 A4 ZN VDD VNW VPW VSS
.ends

* Black-box entry subcircuit for gf180mcu_fd_sc_mcu7t5v0__nand4_1 abstract view
.subckt gf180mcu_fd_sc_mcu7t5v0__nand4_1 A1 A2 A3 A4 ZN VDD VNW VPW VSS
.ends

* Black-box entry subcircuit for gf180mcu_fd_sc_mcu7t5v0__aoi221_2 abstract view
.subckt gf180mcu_fd_sc_mcu7t5v0__aoi221_2 A1 A2 B1 B2 C ZN VDD VNW VPW VSS
.ends

* Black-box entry subcircuit for gf180mcu_fd_sc_mcu7t5v0__oai221_1 abstract view
.subckt gf180mcu_fd_sc_mcu7t5v0__oai221_1 A1 A2 B1 B2 C ZN VDD VNW VPW VSS
.ends

* Black-box entry subcircuit for gf180mcu_fd_sc_mcu7t5v0__aoi211_1 abstract view
.subckt gf180mcu_fd_sc_mcu7t5v0__aoi211_1 A1 A2 B C ZN VDD VNW VPW VSS
.ends

* Black-box entry subcircuit for gf180mcu_fd_sc_mcu7t5v0__nor4_1 abstract view
.subckt gf180mcu_fd_sc_mcu7t5v0__nor4_1 A1 A2 A3 A4 ZN VDD VNW VPW VSS
.ends

* Black-box entry subcircuit for gf180mcu_fd_sc_mcu7t5v0__dffrnq_2 abstract view
.subckt gf180mcu_fd_sc_mcu7t5v0__dffrnq_2 D RN CLK Q VDD VNW VPW VSS
.ends

* Black-box entry subcircuit for gf180mcu_fd_sc_mcu7t5v0__or4_2 abstract view
.subckt gf180mcu_fd_sc_mcu7t5v0__or4_2 A1 A2 A3 A4 Z VDD VNW VPW VSS
.ends

* Black-box entry subcircuit for gf180mcu_fd_sc_mcu7t5v0__xor3_2 abstract view
.subckt gf180mcu_fd_sc_mcu7t5v0__xor3_2 A1 A2 A3 Z VDD VNW VPW VSS
.ends

* Black-box entry subcircuit for gf180mcu_fd_sc_mcu7t5v0__and4_2 abstract view
.subckt gf180mcu_fd_sc_mcu7t5v0__and4_2 A1 A2 A3 A4 Z VDD VNW VPW VSS
.ends

* Black-box entry subcircuit for gf180mcu_fd_sc_mcu7t5v0__mux4_4 abstract view
.subckt gf180mcu_fd_sc_mcu7t5v0__mux4_4 I0 I1 I2 I3 S0 S1 Z VDD VNW VPW VSS
.ends

* Black-box entry subcircuit for gf180mcu_fd_sc_mcu7t5v0__oai31_4 abstract view
.subckt gf180mcu_fd_sc_mcu7t5v0__oai31_4 A1 A2 A3 B ZN VDD VNW VPW VSS
.ends

.subckt OQPSK_RCOSINE_ALL ACK Bit_In EN I[0] I[10] I[11] I[12] I[1] I[2] I[3] I[4]
+ I[5] I[6] I[7] I[8] I[9] Q[0] Q[10] Q[11] Q[12] Q[1] Q[2] Q[3] Q[4] Q[5] Q[6] Q[7]
+ Q[8] Q[9] REQ_SAMPLE RST addI[0] addI[1] addI[2] addI[3] addI[4] addI[5] addQ[0]
+ addQ[1] addQ[2] addQ[3] addQ[4] addQ[5] io_oeb[0] io_oeb[13] io_oeb[14] io_oeb[15]
+ io_oeb[16] io_oeb[17] io_oeb[19] io_oeb[1] io_oeb[2] io_oeb[33] io_oeb[34] io_oeb[35]
+ io_oeb[36] io_oeb[37] io_oeb[3] io_oeb[4] io_oeb[5] io_oeb[6] io_oeb[7] io_oeb[9]
+ vdd vss io_oeb[27] io_oeb[26] io_oeb[25] io_oeb[24] io_oeb[12] io_oeb[23] io_oeb[11]
+ io_oeb[22] io_oeb[10] io_oeb[21] io_oeb[32] io_oeb[20] io_oeb[31] io_oeb[30] io_oeb[29]
+ io_oeb[18] io_oeb[28] io_oeb[8]
X_2037_ _0844_ _0696_ _1110_ vdd vdd vss vss gf180mcu_fd_sc_mcu7t5v0__nor2_1
X_2106_ _0797_ _1020_ _1087_ _1177_ vdd vdd vss vss gf180mcu_fd_sc_mcu7t5v0__aoi21_2
XFILLER_0_9_422 vdd vdd vss vss gf180mcu_fd_sc_mcu7t5v0__fillcap_8
XFILLER_0_40_280 vdd vdd vss vss gf180mcu_fd_sc_mcu7t5v0__fillcap_16
XFILLER_0_17_277 vdd vdd vss vss gf180mcu_fd_sc_mcu7t5v0__fill_1
XFILLER_0_17_288 vdd vdd vss vss gf180mcu_fd_sc_mcu7t5v0__fill_2
XANTENNA__2182__A2 _1248_ vdd vdd vss vss gf180mcu_fd_sc_mcu7t5v0__antenna
XANTENNA_output37_I net37 vdd vdd vss vss gf180mcu_fd_sc_mcu7t5v0__antenna
XFILLER_0_67_133 vdd vdd vss vss gf180mcu_fd_sc_mcu7t5v0__fill_2
XFILLER_0_55_306 vdd vdd vss vss gf180mcu_fd_sc_mcu7t5v0__fillcap_32
XTAP_TAPCELL_ROW_43_448 vdd vss gf180mcu_fd_sc_mcu7t5v0__filltie
XFILLER_0_23_236 vdd vdd vss vss gf180mcu_fd_sc_mcu7t5v0__fill_2
XFILLER_0_48_37 vdd vdd vss vss gf180mcu_fd_sc_mcu7t5v0__fillcap_16
XANTENNA__1684__B2 _0763_ vdd vdd vss vss gf180mcu_fd_sc_mcu7t5v0__antenna
XFILLER_0_46_317 vdd vdd vss vss gf180mcu_fd_sc_mcu7t5v0__fill_2
XANTENNA__1436__A1 _0508_ vdd vdd vss vss gf180mcu_fd_sc_mcu7t5v0__antenna
XFILLER_0_6_403 vdd vdd vss vss gf180mcu_fd_sc_mcu7t5v0__fillcap_8
X_2655_ _0413_ _0414_ _0415_ vdd vdd vss vss gf180mcu_fd_sc_mcu7t5v0__xnor2_1
X_2724_ _0484_ _0469_ _0480_ _0487_ vdd vdd vss vss gf180mcu_fd_sc_mcu7t5v0__or3_1
XFILLER_0_22_280 vdd vdd vss vss gf180mcu_fd_sc_mcu7t5v0__fill_1
X_1606_ _0462_ _0686_ vdd vdd vss vss gf180mcu_fd_sc_mcu7t5v0__clkbuf_2
XFILLER_0_1_152 vdd vdd vss vss gf180mcu_fd_sc_mcu7t5v0__fill_2
X_2586_ _0130_ _0340_ vdd vdd vss vss gf180mcu_fd_sc_mcu7t5v0__buf_1
X_1468_ _0550_ _0554_ _0555_ vdd vdd vss vss gf180mcu_fd_sc_mcu7t5v0__nand2_1
X_1399_ net33 _0129_ vdd vdd vss vss gf180mcu_fd_sc_mcu7t5v0__buf_1
XFILLER_0_1_163 vdd vdd vss vss gf180mcu_fd_sc_mcu7t5v0__fill_2
X_1537_ _0571_ _0575_ _0594_ _0608_ _0617_ _0618_ vdd vdd vss vss gf180mcu_fd_sc_mcu7t5v0__oai221_4
XFILLER_0_49_188 vdd vdd vss vss gf180mcu_fd_sc_mcu7t5v0__fill_1
XTAP_TAPCELL_ROW_40_429 vdd vss gf180mcu_fd_sc_mcu7t5v0__filltie
XFILLER_0_9_230 vdd vdd vss vss gf180mcu_fd_sc_mcu7t5v0__fill_2
XTAP_TAPCELL_ROW_56_540 vdd vss gf180mcu_fd_sc_mcu7t5v0__filltie
XANTENNA__1666__A1 _0676_ vdd vdd vss vss gf180mcu_fd_sc_mcu7t5v0__antenna
XANTENNA__1711__B _0695_ vdd vdd vss vss gf180mcu_fd_sc_mcu7t5v0__antenna
XTAP_TAPCELL_ROW_5_184 vdd vss gf180mcu_fd_sc_mcu7t5v0__filltie
XANTENNA__1902__A2 _0743_ vdd vdd vss vss gf180mcu_fd_sc_mcu7t5v0__antenna
XFILLER_0_28_328 vdd vdd vss vss gf180mcu_fd_sc_mcu7t5v0__fill_2
XFILLER_0_28_317 vdd vdd vss vss gf180mcu_fd_sc_mcu7t5v0__fill_2
X_2440_ _1264_ _0184_ vdd vdd vss vss gf180mcu_fd_sc_mcu7t5v0__buf_2
XANTENNA__2394__A2 _1248_ vdd vdd vss vss gf180mcu_fd_sc_mcu7t5v0__antenna
XFILLER_0_51_375 vdd vdd vss vss gf180mcu_fd_sc_mcu7t5v0__fillcap_8
XFILLER_0_36_383 vdd vdd vss vss gf180mcu_fd_sc_mcu7t5v0__fill_2
XANTENNA__2034__S _0540_ vdd vdd vss vss gf180mcu_fd_sc_mcu7t5v0__antenna
XFILLER_0_3_417 vdd vdd vss vss gf180mcu_fd_sc_mcu7t5v0__fill_2
X_2371_ _0048_ _0103_ _0104_ _0109_ vdd vdd vss vss gf180mcu_fd_sc_mcu7t5v0__nor3_1
XANTENNA__1409__A1 _0118_ vdd vdd vss vss gf180mcu_fd_sc_mcu7t5v0__antenna
XFILLER_0_61_139 vdd vdd vss vss gf180mcu_fd_sc_mcu7t5v0__fill_1
XFILLER_0_24_61 vdd vdd vss vss gf180mcu_fd_sc_mcu7t5v0__fill_2
X_2707_ _0468_ _0447_ _0449_ _0470_ vdd vdd vss vss gf180mcu_fd_sc_mcu7t5v0__and3_1
XFILLER_0_64_2 vdd vdd vss vss gf180mcu_fd_sc_mcu7t5v0__fillcap_32
X_2569_ _0321_ _0322_ _0323_ vdd vdd vss vss gf180mcu_fd_sc_mcu7t5v0__nand2_1
X_2638_ _0395_ _0546_ _0396_ vdd vdd vss vss gf180mcu_fd_sc_mcu7t5v0__nand2_1
XFILLER_0_49_80 vdd vdd vss vss gf180mcu_fd_sc_mcu7t5v0__fillcap_8
XANTENNA__2346__C _0118_ vdd vdd vss vss gf180mcu_fd_sc_mcu7t5v0__antenna
XFILLER_0_65_489 vdd vdd vss vss gf180mcu_fd_sc_mcu7t5v0__fill_1
XFILLER_0_60_183 vdd vdd vss vss gf180mcu_fd_sc_mcu7t5v0__fill_1
XFILLER_0_18_372 vdd vdd vss vss gf180mcu_fd_sc_mcu7t5v0__fillcap_8
XFILLER_0_18_350 vdd vdd vss vss gf180mcu_fd_sc_mcu7t5v0__fill_1
XFILLER_0_0_18 vdd vdd vss vss gf180mcu_fd_sc_mcu7t5v0__fillcap_8
XFILLER_0_56_401 vdd vdd vss vss gf180mcu_fd_sc_mcu7t5v0__fill_2
XANTENNA__2272__B net44 vdd vdd vss vss gf180mcu_fd_sc_mcu7t5v0__antenna
XFILLER_0_28_158 vdd vdd vss vss gf180mcu_fd_sc_mcu7t5v0__fill_2
X_1871_ _0906_ _0818_ _0948_ vdd vdd vss vss gf180mcu_fd_sc_mcu7t5v0__nor2_1
X_1940_ _0959_ _0961_ _0963_ _1016_ vdd vdd vss vss gf180mcu_fd_sc_mcu7t5v0__nor3_2
XTAP_TAPCELL_ROW_16_256 vdd vss gf180mcu_fd_sc_mcu7t5v0__filltie
X_2423_ _0156_ _0165_ _0166_ vdd vdd vss vss gf180mcu_fd_sc_mcu7t5v0__nand2_1
XFILLER_0_24_353 vdd vdd vss vss gf180mcu_fd_sc_mcu7t5v0__fill_2
XFILLER_0_10_52 vdd vdd vss vss gf180mcu_fd_sc_mcu7t5v0__fill_2
XTAP_TAPCELL_ROW_67_624 vdd vss gf180mcu_fd_sc_mcu7t5v0__filltie
XTAP_TAPCELL_ROW_67_613 vdd vss gf180mcu_fd_sc_mcu7t5v0__filltie
X_2285_ _1269_ _0162_ _1367_ vdd vdd vss vss gf180mcu_fd_sc_mcu7t5v0__nand2_2
X_2354_ _1220_ _0091_ _1250_ _1291_ _0092_ vdd vdd vss vss gf180mcu_fd_sc_mcu7t5v0__aoi211_4
XFILLER_0_19_72 vdd vdd vss vss gf180mcu_fd_sc_mcu7t5v0__fill_2
XFILLER_0_19_61 vdd vdd vss vss gf180mcu_fd_sc_mcu7t5v0__fill_2
XFILLER_0_34_139 vdd vdd vss vss gf180mcu_fd_sc_mcu7t5v0__fillcap_4
XFILLER_0_15_397 vdd vdd vss vss gf180mcu_fd_sc_mcu7t5v0__fill_1
XFILLER_0_2_291 vdd vdd vss vss gf180mcu_fd_sc_mcu7t5v0__fill_2
XFILLER_0_65_286 vdd vdd vss vss gf180mcu_fd_sc_mcu7t5v0__fill_2
XFILLER_0_53_437 vdd vdd vss vss gf180mcu_fd_sc_mcu7t5v0__fillcap_32
XFILLER_0_53_426 vdd vdd vss vss gf180mcu_fd_sc_mcu7t5v0__fill_2
XFILLER_0_38_489 vdd vdd vss vss gf180mcu_fd_sc_mcu7t5v0__fillcap_16
XANTENNA__1487__I _0508_ vdd vdd vss vss gf180mcu_fd_sc_mcu7t5v0__antenna
XTAP_TAPCELL_ROW_13_237 vdd vss gf180mcu_fd_sc_mcu7t5v0__filltie
XFILLER_0_61_492 vdd vdd vss vss gf180mcu_fd_sc_mcu7t5v0__fillcap_8
XFILLER_0_33_150 vdd vdd vss vss gf180mcu_fd_sc_mcu7t5v0__fillcap_4
XFILLER_0_21_367 vdd vdd vss vss gf180mcu_fd_sc_mcu7t5v0__fillcap_32
XFILLER_0_21_356 vdd vdd vss vss gf180mcu_fd_sc_mcu7t5v0__fill_2
XTAP_TAPCELL_ROW_21_292 vdd vss gf180mcu_fd_sc_mcu7t5v0__filltie
XFILLER_0_56_37 vdd vdd vss vss gf180mcu_fd_sc_mcu7t5v0__fillcap_32
X_2070_ _1116_ _1125_ _1141_ _1142_ vdd vdd vss vss gf180mcu_fd_sc_mcu7t5v0__oai21_1
XFILLER_0_29_434 vdd vdd vss vss gf180mcu_fd_sc_mcu7t5v0__fill_1
XPHY_EDGE_ROW_28_Left_96 vdd vss gf180mcu_fd_sc_mcu7t5v0__endcap
XFILLER_0_56_264 vdd vdd vss vss gf180mcu_fd_sc_mcu7t5v0__fill_2
XFILLER_0_44_448 vdd vdd vss vss gf180mcu_fd_sc_mcu7t5v0__fillcap_4
XFILLER_0_29_489 vdd vdd vss vss gf180mcu_fd_sc_mcu7t5v0__fill_1
XFILLER_0_21_84 vdd vdd vss vss gf180mcu_fd_sc_mcu7t5v0__fill_2
X_1785_ _0704_ _0864_ vdd vdd vss vss gf180mcu_fd_sc_mcu7t5v0__buf_1
X_1854_ _0920_ _0930_ _0931_ vdd vdd vss vss gf180mcu_fd_sc_mcu7t5v0__xor2_1
X_1923_ _0852_ _0857_ _0860_ _0916_ _0999_ vdd vdd vss vss gf180mcu_fd_sc_mcu7t5v0__nor4_4
X_2406_ _0073_ _0086_ _0546_ _0147_ vdd vdd vss vss gf180mcu_fd_sc_mcu7t5v0__aoi21_1
X_2268_ _1231_ _1347_ _1348_ vdd vdd vss vss gf180mcu_fd_sc_mcu7t5v0__nand2_1
X_2337_ _1306_ _1366_ _0022_ _0073_ vdd vdd vss vss gf180mcu_fd_sc_mcu7t5v0__nor3_4
X_2199_ net36 _1273_ vdd vdd vss vss gf180mcu_fd_sc_mcu7t5v0__clkbuf_2
XANTENNA__2276__A1 _1312_ vdd vdd vss vss gf180mcu_fd_sc_mcu7t5v0__antenna
XFILLER_0_62_223 vdd vdd vss vss gf180mcu_fd_sc_mcu7t5v0__fill_2
XFILLER_0_1_72 vdd vdd vss vss gf180mcu_fd_sc_mcu7t5v0__fill_2
XFILLER_0_50_407 vdd vdd vss vss gf180mcu_fd_sc_mcu7t5v0__fillcap_16
XFILLER_0_43_492 vdd vdd vss vss gf180mcu_fd_sc_mcu7t5v0__fillcap_16
XTAP_TAPCELL_ROW_10_218 vdd vss gf180mcu_fd_sc_mcu7t5v0__filltie
XFILLER_0_15_161 vdd vdd vss vss gf180mcu_fd_sc_mcu7t5v0__fill_2
XANTENNA__1770__I _0593_ vdd vdd vss vss gf180mcu_fd_sc_mcu7t5v0__antenna
XANTENNA__2087__B _0824_ vdd vdd vss vss gf180mcu_fd_sc_mcu7t5v0__antenna
XANTENNA__2019__A1 _0905_ vdd vdd vss vss gf180mcu_fd_sc_mcu7t5v0__antenna
XANTENNA__2019__B2 _1078_ vdd vdd vss vss gf180mcu_fd_sc_mcu7t5v0__antenna
XFILLER_0_53_278 vdd vdd vss vss gf180mcu_fd_sc_mcu7t5v0__fill_2
XFILLER_0_53_212 vdd vdd vss vss gf180mcu_fd_sc_mcu7t5v0__fill_1
XFILLER_0_41_407 vdd vdd vss vss gf180mcu_fd_sc_mcu7t5v0__fillcap_8
XFILLER_0_67_36 vdd vdd vss vss gf180mcu_fd_sc_mcu7t5v0__fillcap_16
XFILLER_0_21_120 vdd vdd vss vss gf180mcu_fd_sc_mcu7t5v0__fill_1
XFILLER_0_1_504 vdd vdd vss vss gf180mcu_fd_sc_mcu7t5v0__fill_1
X_1570_ _0581_ _0651_ vdd vdd vss vss gf180mcu_fd_sc_mcu7t5v0__buf_2
XTAP_TAPCELL_ROW_49_487 vdd vss gf180mcu_fd_sc_mcu7t5v0__filltie
X_2122_ _1169_ _1192_ _1166_ _1193_ vdd vdd vss vss gf180mcu_fd_sc_mcu7t5v0__oai21_2
X_2053_ _1116_ _1125_ _1126_ vdd vdd vss vss gf180mcu_fd_sc_mcu7t5v0__xnor2_1
XFILLER_0_8_158 vdd vdd vss vss gf180mcu_fd_sc_mcu7t5v0__fill_2
XFILLER_0_16_73 vdd vdd vss vss gf180mcu_fd_sc_mcu7t5v0__fill_1
XFILLER_0_40_473 vdd vdd vss vss gf180mcu_fd_sc_mcu7t5v0__fillcap_8
XFILLER_0_40_451 vdd vdd vss vss gf180mcu_fd_sc_mcu7t5v0__fillcap_4
XANTENNA__2733__A2 _0756_ vdd vdd vss vss gf180mcu_fd_sc_mcu7t5v0__antenna
XFILLER_0_32_94 vdd vdd vss vss gf180mcu_fd_sc_mcu7t5v0__fillcap_4
XFILLER_0_25_492 vdd vdd vss vss gf180mcu_fd_sc_mcu7t5v0__fillcap_16
X_1768_ _0710_ _0847_ vdd vdd vss vss gf180mcu_fd_sc_mcu7t5v0__clkbuf_2
X_1906_ _0919_ _0930_ _0558_ _0982_ vdd vdd vss vss gf180mcu_fd_sc_mcu7t5v0__oai21_1
X_1837_ _0853_ _0913_ _0575_ _0769_ _0914_ vdd vdd vss vss gf180mcu_fd_sc_mcu7t5v0__oai211_2
XFILLER_0_57_80 vdd vdd vss vss gf180mcu_fd_sc_mcu7t5v0__fillcap_4
XANTENNA__1804__B _0602_ vdd vdd vss vss gf180mcu_fd_sc_mcu7t5v0__antenna
X_1699_ _0724_ _0753_ _0779_ vdd vdd vss vss gf180mcu_fd_sc_mcu7t5v0__nand2_1
XFILLER_0_35_278 vdd vdd vss vss gf180mcu_fd_sc_mcu7t5v0__fill_2
XTAP_TAPCELL_ROW_23_310 vdd vss gf180mcu_fd_sc_mcu7t5v0__filltie
XFILLER_0_16_470 vdd vdd vss vss gf180mcu_fd_sc_mcu7t5v0__fillcap_32
Xoutput7 net7 I[10] vdd vdd vss vss gf180mcu_fd_sc_mcu7t5v0__buf_8
Xoutput42 net42 addQ[4] vdd vdd vss vss gf180mcu_fd_sc_mcu7t5v0__buf_8
Xoutput20 net20 Q[10] vdd vdd vss vss gf180mcu_fd_sc_mcu7t5v0__buf_8
Xoutput31 net31 Q[9] vdd vdd vss vss gf180mcu_fd_sc_mcu7t5v0__buf_8
XFILLER_0_66_370 vdd vdd vss vss gf180mcu_fd_sc_mcu7t5v0__fillcap_8
XFILLER_0_58_326 vdd vdd vss vss gf180mcu_fd_sc_mcu7t5v0__fillcap_8
XTAP_TAPCELL_ROW_46_468 vdd vss gf180mcu_fd_sc_mcu7t5v0__filltie
X_2671_ p_shaping_I.p_shaping_I.bit_in _0428_ _0431_ _0432_ vdd vdd vss vss gf180mcu_fd_sc_mcu7t5v0__mux2_2
XANTENNA__2280__B _1315_ vdd vdd vss vss gf180mcu_fd_sc_mcu7t5v0__antenna
X_2740_ _0499_ _0501_ vdd vdd vss vss gf180mcu_fd_sc_mcu7t5v0__buf_1
X_1622_ _0613_ _0666_ _0701_ _0651_ _0702_ vdd vdd vss vss gf180mcu_fd_sc_mcu7t5v0__oai31_2
XFILLER_0_14_418 vdd vdd vss vss gf180mcu_fd_sc_mcu7t5v0__fill_2
X_1484_ _0565_ net48 _1484_/ZN vdd vdd vss vss gf180mcu_fd_sc_mcu7t5v0__nor2_1
X_1553_ _0626_ _0634_ vdd vdd vss vss gf180mcu_fd_sc_mcu7t5v0__buf_1
XTAP_TAPCELL_ROW_37_402 vdd vss gf180mcu_fd_sc_mcu7t5v0__filltie
XFILLER_0_27_72 vdd vdd vss vss gf180mcu_fd_sc_mcu7t5v0__fillcap_16
X_2105_ _0713_ _1174_ _1175_ _1143_ _1176_ vdd vdd vss vss gf180mcu_fd_sc_mcu7t5v0__aoi22_1
X_2036_ _0668_ _0716_ _1109_ vdd vdd vss vss gf180mcu_fd_sc_mcu7t5v0__nor2_1
XFILLER_0_49_359 vdd vdd vss vss gf180mcu_fd_sc_mcu7t5v0__fillcap_16
XFILLER_0_32_204 vdd vdd vss vss gf180mcu_fd_sc_mcu7t5v0__fill_1
XFILLER_0_9_489 vdd vdd vss vss gf180mcu_fd_sc_mcu7t5v0__fill_1
XFILLER_0_17_212 vdd vdd vss vss gf180mcu_fd_sc_mcu7t5v0__fill_2
XFILLER_0_4_172 vdd vdd vss vss gf180mcu_fd_sc_mcu7t5v0__fill_2
XPHY_EDGE_ROW_15_Left_83 vdd vss gf180mcu_fd_sc_mcu7t5v0__endcap
XFILLER_0_67_101 vdd vdd vss vss gf180mcu_fd_sc_mcu7t5v0__fill_1
XTAP_TAPCELL_ROW_43_449 vdd vss gf180mcu_fd_sc_mcu7t5v0__filltie
XFILLER_0_63_384 vdd vdd vss vss gf180mcu_fd_sc_mcu7t5v0__fillcap_16
XFILLER_0_64_37 vdd vdd vss vss gf180mcu_fd_sc_mcu7t5v0__fillcap_64
XTAP_TAPCELL_ROW_59_560 vdd vss gf180mcu_fd_sc_mcu7t5v0__filltie
XFILLER_0_58_101 vdd vdd vss vss gf180mcu_fd_sc_mcu7t5v0__fillcap_4
X_2723_ _0486_ net8 vdd vdd vss vss gf180mcu_fd_sc_mcu7t5v0__clkbuf_1
XFILLER_0_54_351 vdd vdd vss vss gf180mcu_fd_sc_mcu7t5v0__fillcap_16
X_2654_ _0339_ _0357_ _0373_ _0372_ _0363_ _0414_ vdd vdd vss vss gf180mcu_fd_sc_mcu7t5v0__oai32_2
X_2585_ _0238_ _0338_ _0021_ _0339_ vdd vdd vss vss gf180mcu_fd_sc_mcu7t5v0__oai21_2
X_1605_ _0584_ _0685_ vdd vdd vss vss gf180mcu_fd_sc_mcu7t5v0__buf_2
XFILLER_0_1_142 vdd vdd vss vss gf180mcu_fd_sc_mcu7t5v0__fill_2
X_1536_ _0611_ _0614_ _0616_ _0617_ vdd vdd vss vss gf180mcu_fd_sc_mcu7t5v0__oai21_2
X_1398_ net53 _0118_ vdd vdd vss vss gf180mcu_fd_sc_mcu7t5v0__clkbuf_2
X_1467_ _0551_ _0552_ _0553_ _0554_ vdd vdd vss vss gf180mcu_fd_sc_mcu7t5v0__oai21_1
XFILLER_0_10_476 vdd vdd vss vss gf180mcu_fd_sc_mcu7t5v0__fillcap_32
XFILLER_0_49_101 vdd vdd vss vss gf180mcu_fd_sc_mcu7t5v0__fill_1
X_2019_ _0905_ _1036_ _1092_ _1078_ _1093_ vdd vdd vss vss gf180mcu_fd_sc_mcu7t5v0__aoi22_1
XFILLER_0_60_310 vdd vdd vss vss gf180mcu_fd_sc_mcu7t5v0__fillcap_4
XFILLER_0_5_492 vdd vdd vss vss gf180mcu_fd_sc_mcu7t5v0__fillcap_16
XFILLER_0_9_264 vdd vdd vss vss gf180mcu_fd_sc_mcu7t5v0__fill_2
XPHY_EDGE_ROW_0_Left_68 vdd vss gf180mcu_fd_sc_mcu7t5v0__endcap
XTAP_TAPCELL_ROW_56_541 vdd vss gf180mcu_fd_sc_mcu7t5v0__filltie
XFILLER_0_63_181 vdd vdd vss vss gf180mcu_fd_sc_mcu7t5v0__fill_1
XFILLER_0_51_387 vdd vdd vss vss gf180mcu_fd_sc_mcu7t5v0__fill_1
X_2370_ _0103_ _0104_ _0048_ _0108_ vdd vdd vss vss gf180mcu_fd_sc_mcu7t5v0__oai21_1
XFILLER_0_46_115 vdd vdd vss vss gf180mcu_fd_sc_mcu7t5v0__fill_2
XTAP_TAPCELL_ROW_19_276 vdd vss gf180mcu_fd_sc_mcu7t5v0__filltie
X_2706_ _0447_ _0449_ _0468_ _0469_ vdd vdd vss vss gf180mcu_fd_sc_mcu7t5v0__aoi21_1
XTAP_TAPCELL_ROW_62_577 vdd vss gf180mcu_fd_sc_mcu7t5v0__filltie
XFILLER_0_40_61 vdd vdd vss vss gf180mcu_fd_sc_mcu7t5v0__fillcap_4
XFILLER_0_6_256 vdd vdd vss vss gf180mcu_fd_sc_mcu7t5v0__fill_2
X_2499_ _0245_ _1362_ _0246_ _0247_ vdd vdd vss vss gf180mcu_fd_sc_mcu7t5v0__oai21_2
X_2568_ _0255_ _0263_ _0552_ _0322_ vdd vdd vss vss gf180mcu_fd_sc_mcu7t5v0__oai21_2
XFILLER_0_57_2 vdd vdd vss vss gf180mcu_fd_sc_mcu7t5v0__fillcap_64
X_2637_ _1367_ _1371_ _1283_ _0395_ vdd vdd vss vss gf180mcu_fd_sc_mcu7t5v0__oai21_2
X_1519_ _0596_ _0579_ _0599_ _0600_ vdd vdd vss vss gf180mcu_fd_sc_mcu7t5v0__nand3_4
XPHY_EDGE_ROW_12_Right_12 vdd vss gf180mcu_fd_sc_mcu7t5v0__endcap
XPHY_EDGE_ROW_21_Right_21 vdd vss gf180mcu_fd_sc_mcu7t5v0__endcap
XANTENNA__1812__B _0007_ vdd vdd vss vss gf180mcu_fd_sc_mcu7t5v0__antenna
XFILLER_0_65_424 vdd vdd vss vss gf180mcu_fd_sc_mcu7t5v0__fill_1
XFILLER_0_52_107 vdd vdd vss vss gf180mcu_fd_sc_mcu7t5v0__fillcap_8
XFILLER_0_37_104 vdd vdd vss vss gf180mcu_fd_sc_mcu7t5v0__fill_1
XFILLER_0_60_151 vdd vdd vss vss gf180mcu_fd_sc_mcu7t5v0__fill_2