*SPEF "ieee 1481-1999"
*DESIGN "OQPSK_RCOSINE_ALL"
*DATE "11:11:11 Fri 11 11, 1111"
*VENDOR "OpenRCX"
*PROGRAM "Parallel Extraction"
*VERSION "1.0"
*DESIGN_FLOW "NAME_SCOPE LOCAL" "PIN_CAP NONE"
*DIVIDER /
*DELIMITER :
*BUS_DELIMITER []
*T_UNIT 1 NS
*C_UNIT 1 PF
*R_UNIT 1 OHM
*L_UNIT 1 HENRY

*NAME_MAP
*1 ACK
*2 Bit_In
*3 EN
*4 I[0]
*5 I[10]
*6 I[11]
*7 I[12]
*8 I[1]
*9 I[2]
*10 I[3]
*11 I[4]
*12 I[5]
*13 I[6]
*14 I[7]
*15 I[8]
*16 I[9]
*17 Q[0]
*18 Q[10]
*19 Q[11]
*20 Q[12]
*21 Q[1]
*22 Q[2]
*23 Q[3]
*24 Q[4]
*25 Q[5]
*26 Q[6]
*27 Q[7]
*28 Q[8]
*29 Q[9]
*30 REQ_SAMPLE
*31 RST
*32 addI[0]
*33 addI[1]
*34 addI[2]
*35 addI[3]
*36 addI[4]
*37 addI[5]
*38 addQ[0]
*39 addQ[1]
*40 addQ[2]
*41 addQ[3]
*42 addQ[4]
*43 addQ[5]
*44 net100
*45 net72
*46 net73
*47 net74
*48 net75
*49 net76
*50 net77
*51 net78
*52 net79
*53 net80
*54 net81
*55 net101
*56 net82
*57 net83
*58 net84
*59 net85
*60 net86
*61 net87
*62 net88
*63 net89
*64 net90
*65 net91
*66 net102
*67 net92
*68 net93
*69 net94
*70 net95
*71 net96
*72 net97
*73 net98
*74 net99
*75 net103
*76 net104
*77 net105
*78 net106
*79 net107
*80 net108
*81 net71
*84 _0000_
*85 _0001_
*86 _0002_
*87 _0003_
*88 _0004_
*89 _0005_
*90 _0006_
*91 _0007_
*92 _0008_
*93 _0009_
*94 _0010_
*95 _0011_
*96 _0012_
*97 _0013_
*98 _0014_
*99 _0015_
*100 _0016_
*101 _0017_
*102 _0018_
*103 _0019_
*104 _0020_
*105 _0021_
*106 _0022_
*107 _0023_
*108 _0024_
*109 _0025_
*110 _0026_
*111 _0027_
*112 _0028_
*113 _0029_
*114 _0030_
*115 _0031_
*116 _0032_
*117 _0033_
*118 _0034_
*119 _0035_
*120 _0036_
*121 _0037_
*122 _0038_
*123 _0039_
*124 _0040_
*125 _0041_
*126 _0042_
*127 _0043_
*128 _0044_
*129 _0045_
*130 _0046_
*131 _0047_
*132 _0048_
*133 _0049_
*134 _0050_
*135 _0051_
*136 _0052_
*137 _0053_
*138 _0054_
*139 _0055_
*140 _0056_
*141 _0057_
*142 _0058_
*143 _0059_
*144 _0060_
*145 _0061_
*146 _0062_
*147 _0063_
*148 _0064_
*149 _0065_
*150 _0066_
*151 _0067_
*152 _0068_
*153 _0069_
*154 _0070_
*155 _0071_
*156 _0072_
*157 _0073_
*158 _0074_
*159 _0075_
*160 _0076_
*161 _0077_
*162 _0078_
*163 _0079_
*164 _0080_
*165 _0081_
*166 _0082_
*167 _0083_
*168 _0084_
*169 _0085_
*170 _0086_
*171 _0087_
*172 _0088_
*173 _0089_
*174 _0090_
*175 _0091_
*176 _0092_
*177 _0093_
*178 _0094_
*179 _0095_
*180 _0096_
*181 _0097_
*182 _0098_
*183 _0099_
*184 _0100_
*185 _0101_
*186 _0102_
*187 _0103_
*188 _0104_
*189 _0105_
*190 _0106_
*191 _0107_
*192 _0108_
*193 _0109_
*194 _0110_
*195 _0111_
*196 _0112_
*197 _0113_
*198 _0114_
*199 _0115_
*200 _0116_
*201 _0117_
*202 _0118_
*203 _0119_
*204 _0120_
*205 _0121_
*206 _0122_
*207 _0123_
*208 _0124_
*209 _0125_
*210 _0126_
*211 _0127_
*212 _0128_
*213 _0129_
*214 _0130_
*215 _0131_
*216 _0132_
*217 _0133_
*218 _0134_
*219 _0135_
*220 _0136_
*221 _0137_
*222 _0138_
*223 _0139_
*224 _0140_
*225 _0141_
*226 _0142_
*227 _0143_
*228 _0144_
*229 _0145_
*230 _0146_
*231 _0147_
*232 _0148_
*233 _0149_
*234 _0150_
*235 _0151_
*236 _0152_
*237 _0153_
*238 _0154_
*239 _0155_
*240 _0156_
*241 _0157_
*242 _0158_
*243 _0159_
*244 _0160_
*245 _0161_
*246 _0162_
*247 _0163_
*248 _0164_
*249 _0165_
*250 _0166_
*251 _0167_
*252 _0168_
*253 _0169_
*254 _0170_
*255 _0171_
*256 _0172_
*257 _0173_
*258 _0174_
*259 _0175_
*260 _0176_
*261 _0177_
*262 _0178_
*263 _0179_
*264 _0180_
*265 _0181_
*266 _0182_
*267 _0183_
*268 _0184_
*269 _0185_
*270 _0186_
*271 _0187_
*272 _0188_
*273 _0189_
*274 _0190_
*275 _0191_
*276 _0192_
*277 _0193_
*278 _0194_
*279 _0195_
*280 _0196_
*281 _0197_
*282 _0198_
*283 _0199_
*284 _0200_
*285 _0201_
*286 _0202_
*287 _0203_
*288 _0204_
*289 _0205_
*290 _0206_
*291 _0207_
*292 _0208_
*293 _0209_
*294 _0210_
*295 _0211_
*296 _0212_
*297 _0213_
*298 _0214_
*299 _0215_
*300 _0216_
*301 _0217_
*302 _0218_
*303 _0219_
*304 _0220_
*305 _0221_
*306 _0222_
*307 _0223_
*308 _0224_
*309 _0225_
*310 _0226_
*311 _0227_
*312 _0228_
*313 _0229_
*314 _0230_
*315 _0231_
*316 _0232_
*317 _0233_
*318 _0234_
*319 _0235_
*320 _0236_
*321 _0237_
*322 _0238_
*323 _0239_
*324 _0240_
*325 _0241_
*326 _0242_
*327 _0243_
*328 _0244_
*329 _0245_
*330 _0246_
*331 _0247_
*332 _0248_
*333 _0249_
*334 _0250_
*335 _0251_
*336 _0252_
*337 _0253_
*338 _0254_
*339 _0255_
*340 _0256_
*341 _0257_
*342 _0258_
*343 _0259_
*344 _0260_
*345 _0261_
*346 _0262_
*347 _0263_
*348 _0264_
*349 _0265_
*350 _0266_
*351 _0267_
*352 _0268_
*353 _0269_
*354 _0270_
*355 _0271_
*356 _0272_
*357 _0273_
*358 _0274_
*359 _0275_
*360 _0276_
*361 _0277_
*362 _0278_
*363 _0279_
*364 _0280_
*365 _0281_
*366 _0282_
*367 _0283_
*368 _0284_
*369 _0285_
*370 _0286_
*371 _0287_
*372 _0288_
*373 _0289_
*374 _0290_
*375 _0291_
*376 _0292_
*377 _0293_
*378 _0294_
*379 _0295_
*380 _0296_
*381 _0297_
*382 _0298_
*383 _0299_
*384 _0300_
*385 _0301_
*386 _0302_
*387 _0303_
*388 _0304_
*389 _0305_
*390 _0306_
*391 _0307_
*392 _0308_
*393 _0309_
*394 _0310_
*395 _0311_
*396 _0312_
*397 _0313_
*398 _0314_
*399 _0315_
*400 _0316_
*401 _0317_
*402 _0318_
*403 _0319_
*404 _0320_
*405 _0321_
*406 _0322_
*407 _0323_
*408 _0324_
*409 _0325_
*410 _0326_
*411 _0327_
*412 _0328_
*413 _0329_
*414 _0330_
*415 _0331_
*416 _0332_
*417 _0333_
*418 _0334_
*419 _0335_
*420 _0336_
*421 _0337_
*422 _0338_
*423 _0339_
*424 _0340_
*425 _0341_
*426 _0342_
*427 _0343_
*428 _0344_
*429 _0345_
*430 _0346_
*431 _0347_
*432 _0348_
*433 _0349_
*434 _0350_
*435 _0351_
*436 _0352_
*437 _0353_
*438 _0354_
*439 _0355_
*440 _0356_
*441 _0357_
*442 _0358_
*443 _0359_
*444 _0360_
*445 _0361_
*446 _0362_
*447 _0363_
*448 _0364_
*449 _0365_
*450 _0366_
*451 _0367_
*452 _0368_
*453 _0369_
*454 _0370_
*455 _0371_
*456 _0372_
*457 _0373_
*458 _0374_
*459 _0375_
*460 _0376_
*461 _0377_
*462 _0378_
*463 _0379_
*464 _0380_
*465 _0381_
*466 _0382_
*467 _0383_
*468 _0384_
*469 _0385_
*470 _0386_
*471 _0387_
*472 _0388_
*473 _0389_
*474 _0390_
*475 _0391_
*476 _0392_
*477 _0393_
*478 _0394_
*479 _0395_
*480 _0396_
*481 _0397_
*482 _0398_
*483 _0399_
*484 _0400_
*485 _0401_
*486 _0402_
*487 _0403_
*488 _0404_
*489 _0405_
*490 _0406_
*491 _0407_
*492 _0408_
*493 _0409_
*494 _0410_
*495 _0411_
*496 _0412_
*497 _0413_
*498 _0414_
*499 _0415_
*500 _0416_
*501 _0417_
*502 _0418_
*503 _0419_
*504 _0420_
*505 _0421_
*506 _0422_
*507 _0423_
*508 _0424_
*509 _0425_
*510 _0426_
*511 _0427_
*512 _0428_
*513 _0429_
*514 _0430_
*515 _0431_
*516 _0432_
*517 _0433_
*518 _0434_
*519 _0435_
*520 _0436_
*521 _0437_
*522 _0438_
*523 _0439_
*524 _0440_
*525 _0441_
*526 _0442_
*527 _0443_
*528 _0444_
*529 _0445_
*530 _0446_
*531 _0447_
*532 _0448_
*533 _0449_
*534 _0450_
*535 _0451_
*536 _0452_
*537 _0453_
*538 _0454_
*539 _0455_
*540 _0456_
*541 _0457_
*542 _0458_
*543 _0459_
*544 _0460_
*545 _0461_
*546 _0462_
*547 _0463_
*548 _0464_
*549 _0465_
*550 _0466_
*551 _0467_
*552 _0468_
*553 _0469_
*554 _0470_
*555 _0471_
*556 _0472_
*557 _0473_
*558 _0474_
*559 _0475_
*560 _0476_
*561 _0477_
*562 _0478_
*563 _0479_
*564 _0480_
*565 _0481_
*566 _0482_
*567 _0483_
*568 _0484_
*569 _0485_
*570 _0486_
*571 _0487_
*572 _0488_
*573 _0489_
*574 _0490_
*575 _0491_
*576 _0492_
*577 _0493_
*578 _0494_
*579 _0495_
*580 _0496_
*581 _0497_
*582 _0498_
*583 _0499_
*584 _0500_
*585 _0501_
*586 _0502_
*587 _0503_
*588 _0504_
*589 _0505_
*590 _0506_
*591 _0507_
*592 _0508_
*593 _0509_
*594 _0510_
*595 _0511_
*596 _0512_
*597 _0513_
*598 _0514_
*599 _0515_
*600 _0516_
*601 _0517_
*602 _0518_
*603 _0519_
*604 _0520_
*605 _0521_
*606 _0522_
*607 _0523_
*608 _0524_
*609 _0525_
*610 _0526_
*611 _0527_
*612 _0528_
*613 _0529_
*614 _0530_
*615 _0531_
*616 _0532_
*617 _0533_
*618 _0534_
*619 _0535_
*620 _0536_
*621 _0537_
*622 _0538_
*623 _0539_
*624 _0540_
*625 _0541_
*626 _0542_
*627 _0543_
*628 _0544_
*629 _0545_
*630 _0546_
*631 _0547_
*632 _0548_
*633 _0549_
*634 _0550_
*635 _0551_
*636 _0552_
*637 _0553_
*638 _0554_
*639 _0555_
*640 _0556_
*641 _0557_
*642 _0558_
*643 _0559_
*644 _0560_
*645 _0561_
*646 _0562_
*647 _0563_
*648 _0564_
*649 _0565_
*650 _0566_
*651 _0567_
*652 _0568_
*653 _0569_
*654 _0570_
*655 _0571_
*656 _0572_
*657 _0573_
*658 _0574_
*659 _0575_
*660 _0576_
*661 _0577_
*662 _0578_
*663 _0579_
*664 _0580_
*665 _0581_
*666 _0582_
*667 _0583_
*668 _0584_
*669 _0585_
*670 _0586_
*671 _0587_
*672 _0588_
*673 _0589_
*674 _0590_
*675 _0591_
*676 _0592_
*677 _0593_
*678 _0594_
*679 _0595_
*680 _0596_
*681 _0597_
*682 _0598_
*683 _0599_
*684 _0600_
*685 _0601_
*686 _0602_
*687 _0603_
*688 _0604_
*689 _0605_
*690 _0606_
*691 _0607_
*692 _0608_
*693 _0609_
*694 _0610_
*695 _0611_
*696 _0612_
*697 _0613_
*698 _0614_
*699 _0615_
*700 _0616_
*701 _0617_
*702 _0618_
*703 _0619_
*704 _0620_
*705 _0621_
*706 _0622_
*707 _0623_
*708 _0624_
*709 _0625_
*710 _0626_
*711 _0627_
*712 _0628_
*713 _0629_
*714 _0630_
*715 _0631_
*716 _0632_
*717 _0633_
*718 _0634_
*719 _0635_
*720 _0636_
*721 _0637_
*722 _0638_
*723 _0639_
*724 _0640_
*725 _0641_
*726 _0642_
*727 _0643_
*728 _0644_
*729 _0645_
*730 _0646_
*731 _0647_
*732 _0648_
*733 _0649_
*734 _0650_
*735 _0651_
*736 _0652_
*737 _0653_
*738 _0654_
*739 _0655_
*740 _0656_
*741 _0657_
*742 _0658_
*743 _0659_
*744 _0660_
*745 _0661_
*746 _0662_
*747 _0663_
*748 _0664_
*749 _0665_
*750 _0666_
*751 _0667_
*752 _0668_
*753 _0669_
*754 _0670_
*755 _0671_
*756 _0672_
*757 _0673_
*758 _0674_
*759 _0675_
*760 _0676_
*761 _0677_
*762 _0678_
*763 _0679_
*764 _0680_
*765 _0681_
*766 _0682_
*767 _0683_
*768 _0684_
*769 _0685_
*770 _0686_
*771 _0687_
*772 _0688_
*773 _0689_
*774 _0690_
*775 _0691_
*776 _0692_
*777 _0693_
*778 _0694_
*779 _0695_
*780 _0696_
*781 _0697_
*782 _0698_
*783 _0699_
*784 _0700_
*785 _0701_
*786 _0702_
*787 _0703_
*788 _0704_
*789 _0705_
*790 _0706_
*791 _0707_
*792 _0708_
*793 _0709_
*794 _0710_
*795 _0711_
*796 _0712_
*797 _0713_
*798 _0714_
*799 _0715_
*800 _0716_
*801 _0717_
*802 _0718_
*803 _0719_
*804 _0720_
*805 _0721_
*806 _0722_
*807 _0723_
*808 _0724_
*809 _0725_
*810 _0726_
*811 _0727_
*812 _0728_
*813 _0729_
*814 _0730_
*815 _0731_
*816 _0732_
*817 _0733_
*818 _0734_
*819 _0735_
*820 _0736_
*821 _0737_
*822 _0738_
*823 _0739_
*824 _0740_
*825 _0741_
*826 _0742_
*827 _0743_
*828 _0744_
*829 _0745_
*830 _0746_
*831 _0747_
*832 _0748_
*833 _0749_
*834 _0750_
*835 _0751_
*836 _0752_
*837 _0753_
*838 _0754_
*839 _0755_
*840 _0756_
*841 _0757_
*842 _0758_
*843 _0759_
*844 _0760_
*845 _0761_
*846 _0762_
*847 _0763_
*848 _0764_
*849 _0765_
*850 _0766_
*851 _0767_
*852 _0768_
*853 _0769_
*854 _0770_
*855 _0771_
*856 _0772_
*857 _0773_
*858 _0774_
*859 _0775_
*860 _0776_
*861 _0777_
*862 _0778_
*863 _0779_
*864 _0780_
*865 _0781_
*866 _0782_
*867 _0783_
*868 _0784_
*869 _0785_
*870 _0786_
*871 _0787_
*872 _0788_
*873 _0789_
*874 _0790_
*875 _0791_
*876 _0792_
*877 _0793_
*878 _0794_
*879 _0795_
*880 _0796_
*881 _0797_
*882 _0798_
*883 _0799_
*884 _0800_
*885 _0801_
*886 _0802_
*887 _0803_
*888 _0804_
*889 _0805_
*890 _0806_
*891 _0807_
*892 _0808_
*893 _0809_
*894 _0810_
*895 _0811_
*896 _0812_
*897 _0813_
*898 _0814_
*899 _0815_
*900 _0816_
*901 _0817_
*902 _0818_
*903 _0819_
*904 _0820_
*905 _0821_
*906 _0822_
*907 _0823_
*908 _0824_
*909 _0825_
*910 _0826_
*911 _0827_
*912 _0828_
*913 _0829_
*914 _0830_
*915 _0831_
*916 _0832_
*917 _0833_
*918 _0834_
*919 _0835_
*920 _0836_
*921 _0837_
*922 _0838_
*923 _0839_
*924 _0840_
*925 _0841_
*926 _0842_
*927 _0843_
*928 _0844_
*929 _0845_
*930 _0846_
*931 _0847_
*932 _0848_
*933 _0849_
*934 _0850_
*935 _0851_
*936 _0852_
*937 _0853_
*938 _0854_
*939 _0855_
*940 _0856_
*941 _0857_
*942 _0858_
*943 _0859_
*944 _0860_
*945 _0861_
*946 _0862_
*947 _0863_
*948 _0864_
*949 _0865_
*950 _0866_
*951 _0867_
*952 _0868_
*953 _0869_
*954 _0870_
*955 _0871_
*956 _0872_
*957 _0873_
*958 _0874_
*959 _0875_
*960 _0876_
*961 _0877_
*962 _0878_
*963 _0879_
*964 _0880_
*965 _0881_
*966 _0882_
*967 _0883_
*968 _0884_
*969 _0885_
*970 _0886_
*971 _0887_
*972 _0888_
*973 _0889_
*974 _0890_
*975 _0891_
*976 _0892_
*977 _0893_
*978 _0894_
*979 _0895_
*980 _0896_
*981 _0897_
*982 _0898_
*983 _0899_
*984 _0900_
*985 _0901_
*986 _0902_
*987 _0903_
*988 _0904_
*989 _0905_
*990 _0906_
*991 _0907_
*992 _0908_
*993 _0909_
*994 _0910_
*995 _0911_
*996 _0912_
*997 _0913_
*998 _0914_
*999 _0915_
*1000 _0916_
*1001 _0917_
*1002 _0918_
*1003 _0919_
*1004 _0920_
*1005 _0921_
*1006 _0922_
*1007 _0923_
*1008 _0924_
*1009 _0925_
*1010 _0926_
*1011 _0927_
*1012 _0928_
*1013 _0929_
*1014 _0930_
*1015 _0931_
*1016 _0932_
*1017 _0933_
*1018 _0934_
*1019 _0935_
*1020 _0936_
*1021 _0937_
*1022 _0938_
*1023 _0939_
*1024 _0940_
*1025 _0941_
*1026 _0942_
*1027 _0943_
*1028 _0944_
*1029 _0945_
*1030 _0946_
*1031 _0947_
*1032 _0948_
*1033 _0949_
*1034 _0950_
*1035 _0951_
*1036 _0952_
*1037 _0953_
*1038 _0954_
*1039 _0955_
*1040 _0956_
*1041 _0957_
*1042 _0958_
*1043 _0959_
*1044 _0960_
*1045 _0961_
*1046 _0962_
*1047 _0963_
*1048 _0964_
*1049 _0965_
*1050 _0966_
*1051 _0967_
*1052 _0968_
*1053 _0969_
*1054 _0970_
*1055 _0971_
*1056 _0972_
*1057 _0973_
*1058 _0974_
*1059 _0975_
*1060 _0976_
*1061 _0977_
*1062 _0978_
*1063 _0979_
*1064 _0980_
*1065 _0981_
*1066 _0982_
*1067 _0983_
*1068 _0984_
*1069 _0985_
*1070 _0986_
*1071 _0987_
*1072 _0988_
*1073 _0989_
*1074 _0990_
*1075 _0991_
*1076 _0992_
*1077 _0993_
*1078 _0994_
*1079 _0995_
*1080 _0996_
*1081 _0997_
*1082 _0998_
*1083 _0999_
*1084 _1000_
*1085 _1001_
*1086 _1002_
*1087 _1003_
*1088 _1004_
*1089 _1005_
*1090 _1006_
*1091 _1007_
*1092 _1008_
*1093 _1009_
*1094 _1010_
*1095 _1011_
*1096 _1012_
*1097 _1013_
*1098 _1014_
*1099 _1015_
*1100 _1016_
*1101 _1017_
*1102 _1018_
*1103 _1019_
*1104 _1020_
*1105 _1021_
*1106 _1022_
*1107 _1023_
*1108 _1024_
*1109 _1025_
*1110 _1026_
*1111 _1027_
*1112 _1028_
*1113 _1029_
*1114 _1030_
*1115 _1031_
*1116 _1032_
*1117 _1033_
*1118 _1034_
*1119 _1035_
*1120 _1036_
*1121 _1037_
*1122 _1038_
*1123 _1039_
*1124 _1040_
*1125 _1041_
*1126 _1042_
*1127 _1043_
*1128 _1044_
*1129 _1045_
*1130 _1046_
*1131 _1047_
*1132 _1048_
*1133 _1049_
*1134 _1050_
*1135 _1051_
*1136 _1052_
*1137 _1053_
*1138 _1054_
*1139 _1055_
*1140 _1056_
*1141 _1057_
*1142 _1058_
*1143 _1059_
*1144 _1060_
*1145 _1061_
*1146 _1062_
*1147 _1063_
*1148 _1064_
*1149 _1065_
*1150 _1066_
*1151 _1067_
*1152 _1068_
*1153 _1069_
*1154 _1070_
*1155 _1071_
*1156 _1072_
*1157 _1073_
*1158 _1074_
*1159 _1075_
*1160 _1076_
*1161 _1077_
*1162 _1078_
*1163 _1079_
*1164 _1080_
*1165 _1081_
*1166 _1082_
*1167 _1083_
*1168 _1084_
*1169 _1085_
*1170 _1086_
*1171 _1087_
*1172 _1088_
*1173 _1089_
*1174 _1090_
*1175 _1091_
*1176 _1092_
*1177 _1093_
*1178 _1094_
*1179 _1095_
*1180 _1096_
*1181 _1097_
*1182 _1098_
*1183 _1099_
*1184 _1100_
*1185 _1101_
*1186 _1102_
*1187 _1103_
*1188 _1104_
*1189 _1105_
*1190 _1106_
*1191 _1107_
*1192 _1108_
*1193 _1109_
*1194 _1110_
*1195 _1111_
*1196 _1112_
*1197 _1113_
*1198 _1114_
*1199 _1115_
*1200 _1116_
*1201 _1117_
*1202 _1118_
*1203 _1119_
*1204 _1120_
*1205 _1121_
*1206 _1122_
*1207 _1123_
*1208 _1124_
*1209 _1125_
*1210 _1126_
*1211 _1127_
*1212 _1128_
*1213 _1129_
*1214 _1130_
*1215 _1131_
*1216 _1132_
*1217 _1133_
*1218 _1134_
*1219 _1135_
*1220 _1136_
*1221 _1137_
*1222 _1138_
*1223 _1139_
*1224 _1140_
*1225 _1141_
*1226 _1142_
*1227 _1143_
*1228 _1144_
*1229 _1145_
*1230 _1146_
*1231 _1147_
*1232 _1148_
*1233 _1149_
*1234 _1150_
*1235 _1151_
*1236 _1152_
*1237 _1153_
*1238 _1154_
*1239 _1155_
*1240 _1156_
*1241 _1157_
*1242 _1158_
*1243 _1159_
*1244 _1160_
*1245 _1161_
*1246 _1162_
*1247 _1163_
*1248 _1164_
*1249 _1165_
*1250 _1166_
*1251 _1167_
*1252 _1168_
*1253 _1169_
*1254 _1170_
*1255 _1171_
*1256 _1172_
*1257 _1173_
*1258 _1174_
*1259 _1175_
*1260 _1176_
*1261 _1177_
*1262 _1178_
*1263 _1179_
*1264 _1180_
*1265 _1181_
*1266 _1182_
*1267 _1183_
*1268 _1184_
*1269 _1185_
*1270 _1186_
*1271 _1187_
*1272 _1188_
*1273 _1189_
*1274 _1190_
*1275 _1191_
*1276 _1192_
*1277 _1193_
*1278 _1194_
*1279 _1195_
*1280 _1196_
*1281 _1197_
*1282 _1198_
*1283 _1199_
*1284 _1200_
*1285 _1201_
*1286 _1202_
*1287 _1203_
*1288 _1204_
*1289 _1205_
*1290 _1206_
*1291 _1207_
*1292 _1208_
*1293 _1209_
*1294 _1210_
*1295 _1211_
*1296 _1212_
*1297 _1213_
*1298 _1214_
*1299 _1215_
*1300 _1216_
*1301 _1217_
*1302 _1218_
*1303 _1219_
*1304 _1220_
*1305 _1221_
*1306 _1222_
*1307 _1223_
*1308 _1224_
*1309 _1225_
*1310 _1226_
*1311 _1227_
*1312 _1228_
*1313 _1229_
*1314 _1230_
*1315 _1231_
*1316 _1232_
*1317 _1233_
*1318 _1234_
*1319 _1235_
*1320 _1236_
*1321 _1237_
*1322 _1238_
*1323 _1239_
*1324 _1240_
*1325 _1241_
*1326 _1242_
*1327 _1243_
*1328 _1244_
*1329 _1245_
*1330 _1246_
*1331 _1247_
*1332 _1248_
*1333 _1249_
*1334 _1250_
*1335 _1251_
*1336 _1252_
*1337 _1253_
*1338 _1254_
*1339 _1255_
*1340 _1256_
*1341 _1257_
*1342 _1258_
*1343 _1259_
*1344 _1260_
*1345 _1261_
*1346 _1262_
*1347 _1263_
*1348 _1264_
*1349 _1265_
*1350 _1266_
*1351 _1267_
*1352 _1268_
*1353 _1269_
*1354 _1270_
*1355 _1271_
*1356 _1272_
*1357 _1273_
*1358 _1274_
*1359 _1275_
*1360 _1276_
*1361 _1277_
*1362 _1278_
*1363 _1279_
*1364 _1280_
*1365 _1281_
*1366 _1282_
*1367 _1283_
*1368 _1284_
*1369 _1285_
*1370 _1286_
*1371 _1287_
*1372 _1288_
*1373 _1289_
*1374 _1290_
*1375 _1291_
*1376 _1292_
*1377 _1293_
*1378 _1294_
*1379 _1295_
*1380 _1296_
*1381 _1297_
*1382 _1298_
*1383 _1299_
*1384 _1300_
*1385 _1301_
*1386 _1302_
*1387 _1303_
*1388 _1304_
*1389 _1305_
*1390 _1306_
*1391 _1307_
*1392 _1308_
*1393 _1309_
*1394 _1310_
*1395 _1311_
*1396 _1312_
*1397 _1313_
*1398 _1314_
*1399 _1315_
*1400 _1316_
*1401 _1317_
*1402 _1318_
*1403 _1319_
*1404 _1320_
*1405 _1321_
*1406 _1322_
*1407 _1323_
*1408 _1324_
*1409 _1325_
*1410 _1326_
*1411 _1327_
*1412 _1328_
*1413 _1329_
*1414 _1330_
*1415 _1331_
*1416 _1332_
*1417 _1333_
*1418 _1334_
*1419 _1335_
*1420 _1336_
*1421 _1337_
*1422 _1338_
*1423 _1339_
*1424 _1340_
*1425 _1341_
*1426 _1342_
*1427 _1343_
*1428 _1344_
*1429 _1345_
*1430 _1346_
*1431 _1347_
*1432 _1348_
*1433 _1349_
*1434 _1350_
*1435 _1351_
*1436 _1352_
*1437 _1353_
*1438 _1354_
*1439 _1355_
*1440 _1356_
*1441 _1357_
*1442 _1358_
*1443 _1359_
*1444 _1360_
*1445 _1361_
*1446 _1362_
*1447 _1363_
*1448 _1364_
*1449 _1365_
*1450 _1366_
*1451 _1367_
*1452 _1368_
*1453 _1369_
*1454 _1370_
*1455 _1371_
*1456 _1372_
*1457 gen_sym\.Reg_2M\.data_in
*1458 gen_sym\.Reg_2M\.data_out
*1459 gen_sym\.Reg_2M\.enable
*1460 gen_sym\.Reg_Sym\.data_out\[0\]
*1461 gen_sym\.Reg_Sym\.data_out\[1\]
*1462 mapper\.bit_Q\[1\]
*1463 net1
*1464 net10
*1465 net11
*1466 net12
*1467 net13
*1468 net14
*1469 net15
*1470 net16
*1471 net17
*1472 net18
*1473 net19
*1474 net2
*1475 net20
*1476 net21
*1477 net22
*1478 net23
*1479 net24
*1480 net25
*1481 net26
*1482 net27
*1483 net28
*1484 net29
*1485 net3
*1486 net30
*1487 net31
*1488 net32
*1489 net33
*1490 net34
*1491 net35
*1492 net36
*1493 net37
*1494 net38
*1495 net39
*1496 net4
*1497 net40
*1498 net41
*1499 net42
*1500 net43
*1501 net44
*1502 net45
*1503 net46
*1504 net47
*1505 net48
*1506 net49
*1507 net5
*1508 net50
*1509 net51
*1510 net52
*1511 net53
*1512 net54
*1513 net55
*1514 net56
*1515 net57
*1516 net58
*1517 net59
*1518 net6
*1519 net60
*1520 net61
*1521 net62
*1522 net63
*1523 net64
*1524 net65
*1525 net66
*1526 net67
*1527 net68
*1528 net69
*1529 net7
*1530 net70
*1531 net8
*1532 net9
*1533 p_shaping_I\.p_shaping_I\.bit_in
*1534 p_shaping_I\.p_shaping_I\.bit_in_1
*1535 p_shaping_I\.p_shaping_I\.bit_in_2
*1536 p_shaping_I\.p_shaping_I\.counter\[0\]
*1537 p_shaping_I\.p_shaping_I\.counter\[1\]
*1538 p_shaping_I\.p_shaping_I\.ctl_1
*1539 p_shaping_Q\.p_shaping_I\.bit_in
*1540 p_shaping_Q\.p_shaping_I\.bit_in_1
*1541 p_shaping_Q\.p_shaping_I\.bit_in_2
*1542 p_shaping_Q\.p_shaping_I\.counter\[0\]
*1543 p_shaping_Q\.p_shaping_I\.counter\[1\]
*1544 p_shaping_Q\.p_shaping_I\.ctl_1
*1545 ANTENNA__1373__I
*1546 ANTENNA__1379__I
*1547 ANTENNA__1381__I
*1548 ANTENNA__1392__A2
*1549 ANTENNA__1393__I
*1550 ANTENNA__1397__A1
*1551 ANTENNA__1403__I
*1552 ANTENNA__1408__A1
*1553 ANTENNA__1409__A1
*1554 ANTENNA__1409__B1
*1555 ANTENNA__1416__A2
*1556 ANTENNA__1416__A4
*1557 ANTENNA__1434__A1
*1558 ANTENNA__1436__A1
*1559 ANTENNA__1438__A1
*1560 ANTENNA__1438__B
*1561 ANTENNA__1441__A1
*1562 ANTENNA__1441__A2
*1563 ANTENNA__1442__A2
*1564 ANTENNA__1449__A2
*1565 ANTENNA__1451__A1
*1566 ANTENNA__1451__A2
*1567 ANTENNA__1453__I
*1568 ANTENNA__1454__I
*1569 ANTENNA__1461__I
*1570 ANTENNA__1468__A1
*1571 ANTENNA__1469__A1
*1572 ANTENNA__1469__A2
*1573 ANTENNA__1476__A1
*1574 ANTENNA__1478__A1
*1575 ANTENNA__1478__A2
*1576 ANTENNA__1480__A2
*1577 ANTENNA__1487__I
*1578 ANTENNA__1494__I
*1579 ANTENNA__1497__I
*1580 ANTENNA__1502__A2
*1581 ANTENNA__1506__B
*1582 ANTENNA__1508__I
*1583 ANTENNA__1513__B2
*1584 ANTENNA__1513__C
*1585 ANTENNA__1519__A1
*1586 ANTENNA__1519__A3
*1587 ANTENNA__1525__I
*1588 ANTENNA__1526__A1
*1589 ANTENNA__1526__A2
*1590 ANTENNA__1527__A1
*1591 ANTENNA__1535__I
*1592 ANTENNA__1537__A1
*1593 ANTENNA__1538__A1
*1594 ANTENNA__1541__A2
*1595 ANTENNA__1542__A2
*1596 ANTENNA__1550__I
*1597 ANTENNA__1554__A1
*1598 ANTENNA__1555__A1
*1599 ANTENNA__1556__A1
*1600 ANTENNA__1559__A1
*1601 ANTENNA__1561__I
*1602 ANTENNA__1564__A2
*1603 ANTENNA__1564__A3
*1604 ANTENNA__1565__B
*1605 ANTENNA__1566__A3
*1606 ANTENNA__1569__A2
*1607 ANTENNA__1572__A1
*1608 ANTENNA__1576__A1
*1609 ANTENNA__1576__A2
*1610 ANTENNA__1580__A2
*1611 ANTENNA__1581__A2
*1612 ANTENNA__1582__A2
*1613 ANTENNA__1583__I
*1614 ANTENNA__1585__A2
*1615 ANTENNA__1589__A1
*1616 ANTENNA__1589__A2
*1617 ANTENNA__1589__B1
*1618 ANTENNA__1589__C
*1619 ANTENNA__1590__I0
*1620 ANTENNA__1590__I1
*1621 ANTENNA__1596__A1
*1622 ANTENNA__1596__A2
*1623 ANTENNA__1597__A1
*1624 ANTENNA__1597__A2
*1625 ANTENNA__1599__I
*1626 ANTENNA__1606__I
*1627 ANTENNA__1607__A1
*1628 ANTENNA__1608__A1
*1629 ANTENNA__1609__I
*1630 ANTENNA__1610__A2
*1631 ANTENNA__1613__A2
*1632 ANTENNA__1614__A1
*1633 ANTENNA__1616__I
*1634 ANTENNA__1622__A2
*1635 ANTENNA__1623__B2
*1636 ANTENNA__1625__A1
*1637 ANTENNA__1626__A1
*1638 ANTENNA__1629__A1
*1639 ANTENNA__1629__A2
*1640 ANTENNA__1632__A1
*1641 ANTENNA__1633__A2
*1642 ANTENNA__1634__A1
*1643 ANTENNA__1634__B
*1644 ANTENNA__1636__A1
*1645 ANTENNA__1639__I0
*1646 ANTENNA__1641__A2
*1647 ANTENNA__1642__A1
*1648 ANTENNA__1642__A2
*1649 ANTENNA__1644__A2
*1650 ANTENNA__1644__B
*1651 ANTENNA__1651__A1
*1652 ANTENNA__1653__A2
*1653 ANTENNA__1656__A2
*1654 ANTENNA__1658__B
*1655 ANTENNA__1659__A1
*1656 ANTENNA__1660__A2
*1657 ANTENNA__1664__A2
*1658 ANTENNA__1664__B
*1659 ANTENNA__1665__A2
*1660 ANTENNA__1666__A1
*1661 ANTENNA__1667__B
*1662 ANTENNA__1669__A1
*1663 ANTENNA__1669__B
*1664 ANTENNA__1670__B
*1665 ANTENNA__1673__A2
*1666 ANTENNA__1673__A3
*1667 ANTENNA__1678__A1
*1668 ANTENNA__1681__I
*1669 ANTENNA__1682__A1
*1670 ANTENNA__1684__A3
*1671 ANTENNA__1684__B1
*1672 ANTENNA__1684__B2
*1673 ANTENNA__1686__A3
*1674 ANTENNA__1687__I
*1675 ANTENNA__1688__A1
*1676 ANTENNA__1688__A2
*1677 ANTENNA__1688__B
*1678 ANTENNA__1690__I
*1679 ANTENNA__1692__I
*1680 ANTENNA__1694__A1
*1681 ANTENNA__1696__A1
*1682 ANTENNA__1700__A1
*1683 ANTENNA__1703__A2
*1684 ANTENNA__1703__B
*1685 ANTENNA__1704__I
*1686 ANTENNA__1705__B
*1687 ANTENNA__1706__A1
*1688 ANTENNA__1706__A2
*1689 ANTENNA__1708__B
*1690 ANTENNA__1711__A1
*1691 ANTENNA__1711__B
*1692 ANTENNA__1713__A2
*1693 ANTENNA__1714__A1
*1694 ANTENNA__1715__A1
*1695 ANTENNA__1719__B
*1696 ANTENNA__1721__A1
*1697 ANTENNA__1721__B
*1698 ANTENNA__1723__A1
*1699 ANTENNA__1723__B2
*1700 ANTENNA__1725__A1
*1701 ANTENNA__1725__B
*1702 ANTENNA__1726__A1
*1703 ANTENNA__1727__A1
*1704 ANTENNA__1727__A2
*1705 ANTENNA__1728__A2
*1706 ANTENNA__1730__B
*1707 ANTENNA__1731__A2
*1708 ANTENNA__1732__I
*1709 ANTENNA__1733__A2
*1710 ANTENNA__1733__B
*1711 ANTENNA__1735__I
*1712 ANTENNA__1736__A1
*1713 ANTENNA__1736__A2
*1714 ANTENNA__1739__I
*1715 ANTENNA__1740__A1
*1716 ANTENNA__1740__A2
*1717 ANTENNA__1741__A1
*1718 ANTENNA__1741__B
*1719 ANTENNA__1746__A2
*1720 ANTENNA__1747__A1
*1721 ANTENNA__1747__A2
*1722 ANTENNA__1747__B1
*1723 ANTENNA__1747__C
*1724 ANTENNA__1748__A1
*1725 ANTENNA__1758__A1
*1726 ANTENNA__1761__B
*1727 ANTENNA__1762__A1
*1728 ANTENNA__1763__I
*1729 ANTENNA__1764__A2
*1730 ANTENNA__1765__A2
*1731 ANTENNA__1766__A1
*1732 ANTENNA__1767__A1
*1733 ANTENNA__1769__A1
*1734 ANTENNA__1770__I
*1735 ANTENNA__1775__A1
*1736 ANTENNA__1776__A1
*1737 ANTENNA__1777__B
*1738 ANTENNA__1784__A1
*1739 ANTENNA__1785__I
*1740 ANTENNA__1786__A1
*1741 ANTENNA__1788__A1
*1742 ANTENNA__1789__A1
*1743 ANTENNA__1789__A2
*1744 ANTENNA__1789__B
*1745 ANTENNA__1791__I
*1746 ANTENNA__1793__B
*1747 ANTENNA__1794__A2
*1748 ANTENNA__1796__B
*1749 ANTENNA__1799__A1
*1750 ANTENNA__1799__A2
*1751 ANTENNA__1799__A3
*1752 ANTENNA__1800__B
*1753 ANTENNA__1803__A1
*1754 ANTENNA__1804__A1
*1755 ANTENNA__1804__B
*1756 ANTENNA__1805__B
*1757 ANTENNA__1806__I
*1758 ANTENNA__1812__B
*1759 ANTENNA__1831__A2
*1760 ANTENNA__1832__A1
*1761 ANTENNA__1833__A2
*1762 ANTENNA__1834__A2
*1763 ANTENNA__1837__A1
*1764 ANTENNA__1837__A2
*1765 ANTENNA__1838__A3
*1766 ANTENNA__1840__A2
*1767 ANTENNA__1841__A1
*1768 ANTENNA__1842__A1
*1769 ANTENNA__1842__A2
*1770 ANTENNA__1842__A3
*1771 ANTENNA__1844__A2
*1772 ANTENNA__1845__B2
*1773 ANTENNA__1846__B
*1774 ANTENNA__1848__A1
*1775 ANTENNA__1849__I
*1776 ANTENNA__1851__A3
*1777 ANTENNA__1852__C
*1778 ANTENNA__1855__A1
*1779 ANTENNA__1855__A2
*1780 ANTENNA__1856__B
*1781 ANTENNA__1860__B2
*1782 ANTENNA__1861__A1
*1783 ANTENNA__1862__A1
*1784 ANTENNA__1862__A2
*1785 ANTENNA__1862__B
*1786 ANTENNA__1864__A3
*1787 ANTENNA__1866__A1
*1788 ANTENNA__1867__A1
*1789 ANTENNA__1867__B2
*1790 ANTENNA__1868__A2
*1791 ANTENNA__1868__A3
*1792 ANTENNA__1868__A4
*1793 ANTENNA__1870__B2
*1794 ANTENNA__1870__C2
*1795 ANTENNA__1871__A2
*1796 ANTENNA__1872__A1
*1797 ANTENNA__1874__S0
*1798 ANTENNA__1876__A1
*1799 ANTENNA__1879__A1
*1800 ANTENNA__1902__A2
*1801 ANTENNA__1903__A2
*1802 ANTENNA__1904__A2
*1803 ANTENNA__1909__A1
*1804 ANTENNA__1910__A1
*1805 ANTENNA__1912__A2
*1806 ANTENNA__1913__A1
*1807 ANTENNA__1913__A3
*1808 ANTENNA__1914__B
*1809 ANTENNA__1916__A1
*1810 ANTENNA__1917__A1
*1811 ANTENNA__1918__A2
*1812 ANTENNA__1919__A2
*1813 ANTENNA__1922__I
*1814 ANTENNA__1923__A4
*1815 ANTENNA__1926__A2
*1816 ANTENNA__1930__A2
*1817 ANTENNA__1931__I
*1818 ANTENNA__1932__A1
*1819 ANTENNA__1932__A2
*1820 ANTENNA__1932__A3
*1821 ANTENNA__1933__B2
*1822 ANTENNA__1934__A1
*1823 ANTENNA__1935__A1
*1824 ANTENNA__1935__B2
*1825 ANTENNA__1945__A2
*1826 ANTENNA__1947__B
*1827 ANTENNA__1948__A1
*1828 ANTENNA__1950__A2
*1829 ANTENNA__1950__B
*1830 ANTENNA__1952__A1
*1831 ANTENNA__1957__A1
*1832 ANTENNA__1958__A1
*1833 ANTENNA__1959__I
*1834 ANTENNA__1960__A2
*1835 ANTENNA__1961__A2
*1836 ANTENNA__1963__B2
*1837 ANTENNA__1966__B
*1838 ANTENNA__1970__I
*1839 ANTENNA__1971__A2
*1840 ANTENNA__1974__A2
*1841 ANTENNA__1977__A2
*1842 ANTENNA__1977__C
*1843 ANTENNA__1995__A2
*1844 ANTENNA__1995__B
*1845 ANTENNA__1998__C
*1846 ANTENNA__2005__A1
*1847 ANTENNA__2005__A2
*1848 ANTENNA__2005__B2
*1849 ANTENNA__2007__A1
*1850 ANTENNA__2008__A1
*1851 ANTENNA__2012__A1
*1852 ANTENNA__2017__A2
*1853 ANTENNA__2019__A1
*1854 ANTENNA__2019__B2
*1855 ANTENNA__2032__A1
*1856 ANTENNA__2032__A2
*1857 ANTENNA__2034__S
*1858 ANTENNA__2035__A1
*1859 ANTENNA__2036__A1
*1860 ANTENNA__2037__A2
*1861 ANTENNA__2038__B
*1862 ANTENNA__2047__A2
*1863 ANTENNA__2050__A1
*1864 ANTENNA__2052__A1
*1865 ANTENNA__2072__A2
*1866 ANTENNA__2076__A1
*1867 ANTENNA__2087__B
*1868 ANTENNA__2088__A2
*1869 ANTENNA__2089__A2
*1870 ANTENNA__2089__C
*1871 ANTENNA__2091__C
*1872 ANTENNA__2101__A1
*1873 ANTENNA__2102__A2
*1874 ANTENNA__2102__B1
*1875 ANTENNA__2102__B2
*1876 ANTENNA__2104__A2
*1877 ANTENNA__2105__A1
*1878 ANTENNA__2108__A1
*1879 ANTENNA__2110__A2
*1880 ANTENNA__2114__A1
*1881 ANTENNA__2128__A1
*1882 ANTENNA__2148__A1
*1883 ANTENNA__2154__A2
*1884 ANTENNA__2158__I
*1885 ANTENNA__2165__A2
*1886 ANTENNA__2170__I
*1887 ANTENNA__2182__A2
*1888 ANTENNA__2182__C
*1889 ANTENNA__2199__I
*1890 ANTENNA__2200__A2
*1891 ANTENNA__2201__A2
*1892 ANTENNA__2202__A1
*1893 ANTENNA__2208__A1
*1894 ANTENNA__2211__I
*1895 ANTENNA__2214__A2
*1896 ANTENNA__2221__A1
*1897 ANTENNA__2221__A2
*1898 ANTENNA__2221__B
*1899 ANTENNA__2224__B
*1900 ANTENNA__2227__A3
*1901 ANTENNA__2231__C
*1902 ANTENNA__2233__A2
*1903 ANTENNA__2235__A2
*1904 ANTENNA__2236__A2
*1905 ANTENNA__2236__B2
*1906 ANTENNA__2238__A1
*1907 ANTENNA__2239__A1
*1908 ANTENNA__2239__A2
*1909 ANTENNA__2239__B1
*1910 ANTENNA__2246__I
*1911 ANTENNA__2249__B
*1912 ANTENNA__2252__A2
*1913 ANTENNA__2257__A1
*1914 ANTENNA__2261__A3
*1915 ANTENNA__2266__A1
*1916 ANTENNA__2267__I
*1917 ANTENNA__2268__A2
*1918 ANTENNA__2269__A2
*1919 ANTENNA__2272__B
*1920 ANTENNA__2273__A1
*1921 ANTENNA__2274__A1
*1922 ANTENNA__2275__A2
*1923 ANTENNA__2276__A1
*1924 ANTENNA__2277__A1
*1925 ANTENNA__2277__B
*1926 ANTENNA__2280__B
*1927 ANTENNA__2282__A2
*1928 ANTENNA__2283__A1
*1929 ANTENNA__2290__A1
*1930 ANTENNA__2290__B
*1931 ANTENNA__2298__B
*1932 ANTENNA__2301__A3
*1933 ANTENNA__2302__A1
*1934 ANTENNA__2303__A2
*1935 ANTENNA__2304__A1
*1936 ANTENNA__2305__A1
*1937 ANTENNA__2319__B
*1938 ANTENNA__2323__A1
*1939 ANTENNA__2323__A2
*1940 ANTENNA__2324__A2
*1941 ANTENNA__2331__A3
*1942 ANTENNA__2332__A2
*1943 ANTENNA__2334__B2
*1944 ANTENNA__2335__A2
*1945 ANTENNA__2346__C
*1946 ANTENNA__2348__A1
*1947 ANTENNA__2352__B1
*1948 ANTENNA__2357__A1
*1949 ANTENNA__2359__C1
*1950 ANTENNA__2377__A2
*1951 ANTENNA__2378__A2
*1952 ANTENNA__2382__A2
*1953 ANTENNA__2384__A2
*1954 ANTENNA__2385__A1
*1955 ANTENNA__2388__A2
*1956 ANTENNA__2391__A2
*1957 ANTENNA__2394__A2
*1958 ANTENNA__2395__A2
*1959 ANTENNA__2396__A2
*1960 ANTENNA__2396__A3
*1961 ANTENNA__2397__B
*1962 ANTENNA__2402__A2
*1963 ANTENNA__2403__B
*1964 ANTENNA__2404__B2
*1965 ANTENNA__2404__C
*1966 ANTENNA__2405__A1
*1967 ANTENNA__2410__B1
*1968 ANTENNA__2413__A2
*1969 ANTENNA__2416__A2
*1970 ANTENNA__2416__A3
*1971 ANTENNA__2419__A3
*1972 ANTENNA__2420__A2
*1973 ANTENNA__2432__A2
*1974 ANTENNA__2433__A2
*1975 ANTENNA__2434__A2
*1976 ANTENNA__2434__A4
*1977 ANTENNA__2435__A1
*1978 ANTENNA__2441__A1
*1979 ANTENNA__2441__A2
*1980 ANTENNA__2442__A2
*1981 ANTENNA__2445__A2
*1982 ANTENNA__2445__B
*1983 ANTENNA__2454__A2