*SPEF "ieee 1481-1999"
*DESIGN "user_project_wrapper"
*DATE "11:11:11 Fri 11 11, 1111"
*VENDOR "OpenRCX"
*PROGRAM "Parallel Extraction"
*VERSION "1.0"
*DESIGN_FLOW "NAME_SCOPE LOCAL" "PIN_CAP NONE"
*DIVIDER /
*DELIMITER :
*BUS_DELIMITER []
*T_UNIT 1 NS
*C_UNIT 1 PF
*R_UNIT 1 OHM
*L_UNIT 1 HENRY

*NAME_MAP
*1 io_in[0]
*2 io_in[10]
*3 io_in[11]
*4 io_in[12]
*5 io_in[13]
*6 io_in[14]
*7 io_in[15]
*8 io_in[16]
*9 io_in[17]
*10 io_in[18]
*11 io_in[19]
*12 io_in[1]
*13 io_in[20]
*14 io_in[21]
*15 io_in[22]
*16 io_in[23]
*17 io_in[24]
*18 io_in[25]
*19 io_in[26]
*20 io_in[27]
*21 io_in[28]
*22 io_in[29]
*23 io_in[2]
*24 io_in[30]
*25 io_in[31]
*26 io_in[32]
*27 io_in[33]
*28 io_in[34]
*29 io_in[35]
*30 io_in[36]
*31 io_in[37]
*32 io_in[3]
*33 io_in[4]
*34 io_in[5]
*35 io_in[6]
*36 io_in[7]
*37 io_in[8]
*38 io_in[9]
*39 io_oeb[0]
*40 io_oeb[10]
*41 io_oeb[11]
*42 io_oeb[12]
*43 io_oeb[13]
*44 io_oeb[14]
*45 io_oeb[15]
*46 io_oeb[16]
*47 io_oeb[17]
*48 io_oeb[18]
*49 io_oeb[19]
*50 io_oeb[1]
*51 io_oeb[20]
*52 io_oeb[21]
*53 io_oeb[22]
*54 io_oeb[23]
*55 io_oeb[24]
*56 io_oeb[25]
*57 io_oeb[26]
*58 io_oeb[27]
*59 io_oeb[28]
*60 io_oeb[29]
*61 io_oeb[2]
*62 io_oeb[30]
*63 io_oeb[31]
*64 io_oeb[32]
*65 io_oeb[33]
*66 io_oeb[34]
*67 io_oeb[35]
*68 io_oeb[36]
*69 io_oeb[37]
*70 io_oeb[3]
*71 io_oeb[4]
*72 io_oeb[5]
*73 io_oeb[6]
*74 io_oeb[7]
*75 io_oeb[8]
*76 io_oeb[9]
*77 io_out[0]
*78 io_out[10]
*79 io_out[11]
*80 io_out[12]
*81 io_out[13]
*82 io_out[14]
*83 io_out[15]
*84 io_out[16]
*85 io_out[17]
*86 io_out[18]
*87 io_out[19]
*88 io_out[1]
*89 io_out[20]
*90 io_out[21]
*91 io_out[22]
*92 io_out[23]
*93 io_out[24]
*94 io_out[25]
*95 io_out[26]
*96 io_out[27]
*97 io_out[28]
*98 io_out[29]
*99 io_out[2]
*100 io_out[30]
*101 io_out[31]
*102 io_out[32]
*103 io_out[33]
*104 io_out[34]
*105 io_out[35]
*106 io_out[36]
*107 io_out[37]
*108 io_out[3]
*109 io_out[4]
*110 io_out[5]
*111 io_out[6]
*112 io_out[7]
*113 io_out[8]
*114 io_out[9]
*115 la_data_in[0]
*116 la_data_in[10]
*117 la_data_in[11]
*118 la_data_in[12]
*119 la_data_in[13]
*120 la_data_in[14]
*121 la_data_in[15]
*122 la_data_in[16]
*123 la_data_in[17]
*124 la_data_in[18]
*125 la_data_in[19]
*126 la_data_in[1]
*127 la_data_in[20]
*128 la_data_in[21]
*129 la_data_in[22]
*130 la_data_in[23]
*131 la_data_in[24]
*132 la_data_in[25]
*133 la_data_in[26]
*134 la_data_in[27]
*135 la_data_in[28]
*136 la_data_in[29]
*137 la_data_in[2]
*138 la_data_in[30]
*139 la_data_in[31]
*140 la_data_in[32]
*141 la_data_in[33]
*142 la_data_in[34]
*143 la_data_in[35]
*144 la_data_in[36]
*145 la_data_in[37]
*146 la_data_in[38]
*147 la_data_in[39]
*148 la_data_in[3]
*149 la_data_in[40]
*150 la_data_in[41]
*151 la_data_in[42]
*152 la_data_in[43]
*153 la_data_in[44]
*154 la_data_in[45]
*155 la_data_in[46]
*156 la_data_in[47]
*157 la_data_in[48]
*158 la_data_in[49]
*159 la_data_in[4]
*160 la_data_in[50]
*161 la_data_in[51]
*162 la_data_in[52]
*163 la_data_in[53]
*164 la_data_in[54]
*165 la_data_in[55]
*166 la_data_in[56]
*167 la_data_in[57]
*168 la_data_in[58]
*169 la_data_in[59]
*170 la_data_in[5]
*171 la_data_in[60]
*172 la_data_in[61]
*173 la_data_in[62]
*174 la_data_in[63]
*175 la_data_in[6]
*176 la_data_in[7]
*177 la_data_in[8]
*178 la_data_in[9]
*179 la_data_out[0]
*180 la_data_out[10]
*181 la_data_out[11]
*182 la_data_out[12]
*183 la_data_out[13]
*184 la_data_out[14]
*185 la_data_out[15]
*186 la_data_out[16]
*187 la_data_out[17]
*188 la_data_out[18]
*189 la_data_out[19]
*190 la_data_out[1]
*191 la_data_out[20]
*192 la_data_out[21]
*193 la_data_out[22]
*194 la_data_out[23]
*195 la_data_out[24]
*196 la_data_out[25]
*197 la_data_out[26]
*198 la_data_out[27]
*199 la_data_out[28]
*200 la_data_out[29]
*201 la_data_out[2]
*202 la_data_out[30]
*203 la_data_out[31]
*204 la_data_out[32]
*205 la_data_out[33]
*206 la_data_out[34]
*207 la_data_out[35]
*208 la_data_out[36]
*209 la_data_out[37]
*210 la_data_out[38]
*211 la_data_out[39]
*212 la_data_out[3]
*213 la_data_out[40]
*214 la_data_out[41]
*215 la_data_out[42]
*216 la_data_out[43]
*217 la_data_out[44]
*218 la_data_out[45]
*219 la_data_out[46]
*220 la_data_out[47]
*221 la_data_out[48]
*222 la_data_out[49]
*223 la_data_out[4]
*224 la_data_out[50]
*225 la_data_out[51]
*226 la_data_out[52]
*227 la_data_out[53]
*228 la_data_out[54]
*229 la_data_out[55]
*230 la_data_out[56]
*231 la_data_out[57]
*232 la_data_out[58]
*233 la_data_out[59]
*234 la_data_out[5]
*235 la_data_out[60]
*236 la_data_out[61]
*237 la_data_out[62]
*238 la_data_out[63]
*239 la_data_out[6]
*240 la_data_out[7]
*241 la_data_out[8]
*242 la_data_out[9]
*243 la_oenb[0]
*244 la_oenb[10]
*245 la_oenb[11]
*246 la_oenb[12]
*247 la_oenb[13]
*248 la_oenb[14]
*249 la_oenb[15]
*250 la_oenb[16]
*251 la_oenb[17]
*252 la_oenb[18]
*253 la_oenb[19]
*254 la_oenb[1]
*255 la_oenb[20]
*256 la_oenb[21]
*257 la_oenb[22]
*258 la_oenb[23]
*259 la_oenb[24]
*260 la_oenb[25]
*261 la_oenb[26]
*262 la_oenb[27]
*263 la_oenb[28]
*264 la_oenb[29]
*265 la_oenb[2]
*266 la_oenb[30]
*267 la_oenb[31]
*268 la_oenb[32]
*269 la_oenb[33]
*270 la_oenb[34]
*271 la_oenb[35]
*272 la_oenb[36]
*273 la_oenb[37]
*274 la_oenb[38]
*275 la_oenb[39]
*276 la_oenb[3]
*277 la_oenb[40]
*278 la_oenb[41]
*279 la_oenb[42]
*280 la_oenb[43]
*281 la_oenb[44]
*282 la_oenb[45]
*283 la_oenb[46]
*284 la_oenb[47]
*285 la_oenb[48]
*286 la_oenb[49]
*287 la_oenb[4]
*288 la_oenb[50]
*289 la_oenb[51]
*290 la_oenb[52]
*291 la_oenb[53]
*292 la_oenb[54]
*293 la_oenb[55]
*294 la_oenb[56]
*295 la_oenb[57]
*296 la_oenb[58]
*297 la_oenb[59]
*298 la_oenb[5]
*299 la_oenb[60]
*300 la_oenb[61]
*301 la_oenb[62]
*302 la_oenb[63]
*303 la_oenb[6]
*304 la_oenb[7]
*305 la_oenb[8]
*306 la_oenb[9]
*307 user_clock2
*308 user_irq[0]
*309 user_irq[1]
*310 user_irq[2]
*313 wb_clk_i
*314 wb_rst_i
*315 wbs_ack_o
*316 wbs_adr_i[0]
*317 wbs_adr_i[10]
*318 wbs_adr_i[11]
*319 wbs_adr_i[12]
*320 wbs_adr_i[13]
*321 wbs_adr_i[14]
*322 wbs_adr_i[15]
*323 wbs_adr_i[16]
*324 wbs_adr_i[17]
*325 wbs_adr_i[18]
*326 wbs_adr_i[19]
*327 wbs_adr_i[1]
*328 wbs_adr_i[20]
*329 wbs_adr_i[21]
*330 wbs_adr_i[22]
*331 wbs_adr_i[23]
*332 wbs_adr_i[24]
*333 wbs_adr_i[25]
*334 wbs_adr_i[26]
*335 wbs_adr_i[27]
*336 wbs_adr_i[28]
*337 wbs_adr_i[29]
*338 wbs_adr_i[2]
*339 wbs_adr_i[30]
*340 wbs_adr_i[31]
*341 wbs_adr_i[3]
*342 wbs_adr_i[4]
*343 wbs_adr_i[5]
*344 wbs_adr_i[6]
*345 wbs_adr_i[7]
*346 wbs_adr_i[8]
*347 wbs_adr_i[9]
*348 wbs_cyc_i
*349 wbs_dat_i[0]
*350 wbs_dat_i[10]
*351 wbs_dat_i[11]
*352 wbs_dat_i[12]
*353 wbs_dat_i[13]
*354 wbs_dat_i[14]
*355 wbs_dat_i[15]
*356 wbs_dat_i[16]
*357 wbs_dat_i[17]
*358 wbs_dat_i[18]
*359 wbs_dat_i[19]
*360 wbs_dat_i[1]
*361 wbs_dat_i[20]
*362 wbs_dat_i[21]
*363 wbs_dat_i[22]
*364 wbs_dat_i[23]
*365 wbs_dat_i[24]
*366 wbs_dat_i[25]
*367 wbs_dat_i[26]
*368 wbs_dat_i[27]
*369 wbs_dat_i[28]
*370 wbs_dat_i[29]
*371 wbs_dat_i[2]
*372 wbs_dat_i[30]
*373 wbs_dat_i[31]
*374 wbs_dat_i[3]
*375 wbs_dat_i[4]
*376 wbs_dat_i[5]
*377 wbs_dat_i[6]
*378 wbs_dat_i[7]
*379 wbs_dat_i[8]
*380 wbs_dat_i[9]
*381 wbs_dat_o[0]
*382 wbs_dat_o[10]
*383 wbs_dat_o[11]
*384 wbs_dat_o[12]
*385 wbs_dat_o[13]
*386 wbs_dat_o[14]
*387 wbs_dat_o[15]
*388 wbs_dat_o[16]
*389 wbs_dat_o[17]
*390 wbs_dat_o[18]
*391 wbs_dat_o[19]
*392 wbs_dat_o[1]
*393 wbs_dat_o[20]
*394 wbs_dat_o[21]
*395 wbs_dat_o[22]
*396 wbs_dat_o[23]
*397 wbs_dat_o[24]
*398 wbs_dat_o[25]
*399 wbs_dat_o[26]
*400 wbs_dat_o[27]
*401 wbs_dat_o[28]
*402 wbs_dat_o[29]
*403 wbs_dat_o[2]
*404 wbs_dat_o[30]
*405 wbs_dat_o[31]
*406 wbs_dat_o[3]
*407 wbs_dat_o[4]
*408 wbs_dat_o[5]
*409 wbs_dat_o[6]
*410 wbs_dat_o[7]
*411 wbs_dat_o[8]
*412 wbs_dat_o[9]
*413 wbs_sel_i[0]
*414 wbs_sel_i[1]
*415 wbs_sel_i[2]
*416 wbs_sel_i[3]
*417 wbs_stb_i
*418 wbs_we_i
*419 oqpsk

*PORTS
io_in[0] I
io_in[10] I
io_in[11] I
io_in[12] I
io_in[13] I
io_in[14] I
io_in[15] I
io_in[16] I
io_in[17] I
io_in[18] I
io_in[19] I
io_in[1] I
io_in[20] I
io_in[21] I
io_in[22] I
io_in[23] I
io_in[24] I
io_in[25] I
io_in[26] I
io_in[27] I
io_in[28] I
io_in[29] I
io_in[2] I
io_in[30] I
io_in[31] I
io_in[32] I
io_in[33] I
io_in[34] I
io_in[35] I
io_in[36] I
io_in[37] I
io_in[3] I
io_in[4] I
io_in[5] I
io_in[6] I
io_in[7] I
io_in[8] I
io_in[9] I
io_oeb[0] O
io_oeb[10] O
io_oeb[11] O
io_oeb[12] O
io_oeb[13] O
io_oeb[14] O
io_oeb[15] O
io_oeb[16] O
io_oeb[17] O
io_oeb[18] O
io_oeb[19] O
io_oeb[1] O
io_oeb[20] O
io_oeb[21] O
io_oeb[22] O
io_oeb[23] O
io_oeb[24] O
io_oeb[25] O
io_oeb[26] O
io_oeb[27] O
io_oeb[28] O
io_oeb[29] O
io_oeb[2] O
io_oeb[30] O
io_oeb[31] O
io_oeb[32] O
io_oeb[33] O
io_oeb[34] O
io_oeb[35] O
io_oeb[36] O
io_oeb[37] O
io_oeb[3] O
io_oeb[4] O
io_oeb[5] O
io_oeb[6] O
io_oeb[7] O
io_oeb[8] O
io_oeb[9] O
io_out[0] O
io_out[10] O
io_out[11] O
io_out[12] O
io_out[13] O
io_out[14] O
io_out[15] O
io_out[16] O
io_out[17] O
io_out[18] O
io_out[19] O
io_out[1] O
io_out[20] O
io_out[21] O
io_out[22] O
io_out[23] O
io_out[24] O
io_out[25] O
io_out[26] O
io_out[27] O
io_out[28] O
io_out[29] O
io_out[2] O
io_out[30] O
io_out[31] O
io_out[32] O
io_out[33] O
io_out[34] O
io_out[35] O
io_out[36] O
io_out[37] O
io_out[3] O
io_out[4] O
io_out[5] O
io_out[6] O
io_out[7] O
io_out[8] O
io_out[9] O
la_data_in[0] I
la_data_in[10] I
la_data_in[11] I
la_data_in[12] I
la_data_in[13] I
la_data_in[14] I
la_data_in[15] I
la_data_in[16] I
la_data_in[17] I
la_data_in[18] I
la_data_in[19] I
la_data_in[1] I
la_data_in[20] I
la_data_in[21] I
la_data_in[22] I
la_data_in[23] I
la_data_in[24] I
la_data_in[25] I
la_data_in[26] I
la_data_in[27] I
la_data_in[28] I
la_data_in[29] I
la_data_in[2] I
la_data_in[30] I
la_data_in[31] I
la_data_in[32] I
la_data_in[33] I
la_data_in[34] I
la_data_in[35] I
la_data_in[36] I
la_data_in[37] I
la_data_in[38] I
la_data_in[39] I
la_data_in[3] I
la_data_in[40] I
la_data_in[41] I
la_data_in[42] I
la_data_in[43] I
la_data_in[44] I
la_data_in[45] I
la_data_in[46] I
la_data_in[47] I
la_data_in[48] I
la_data_in[49] I
la_data_in[4] I
la_data_in[50] I
la_data_in[51] I
la_data_in[52] I
la_data_in[53] I
la_data_in[54] I
la_data_in[55] I
la_data_in[56] I
la_data_in[57] I
la_data_in[58] I
la_data_in[59] I
la_data_in[5] I
la_data_in[60] I
la_data_in[61] I
la_data_in[62] I
la_data_in[63] I
la_data_in[6] I
la_data_in[7] I
la_data_in[8] I
la_data_in[9] I
la_data_out[0] O
la_data_out[10] O
la_data_out[11] O
la_data_out[12] O
la_data_out[13] O
la_data_out[14] O
la_data_out[15] O
la_data_out[16] O
la_data_out[17] O
la_data_out[18] O
la_data_out[19] O
la_data_out[1] O
la_data_out[20] O
la_data_out[21] O
la_data_out[22] O
la_data_out[23] O
la_data_out[24] O
la_data_out[25] O
la_data_out[26] O
la_data_out[27] O
la_data_out[28] O
la_data_out[29] O
la_data_out[2] O
la_data_out[30] O
la_data_out[31] O
la_data_out[32] O
la_data_out[33] O
la_data_out[34] O
la_data_out[35] O
la_data_out[36] O
la_data_out[37] O
la_data_out[38] O
la_data_out[39] O
la_data_out[3] O
la_data_out[40] O
la_data_out[41] O
la_data_out[42] O
la_data_out[43] O
la_data_out[44] O
la_data_out[45] O
la_data_out[46] O
la_data_out[47] O
la_data_out[48] O
la_data_out[49] O
la_data_out[4] O
la_data_out[50] O
la_data_out[51] O
la_data_out[52] O
la_data_out[53] O
la_data_out[54] O
la_data_out[55] O
la_data_out[56] O
la_data_out[57] O
la_data_out[58] O
la_data_out[59] O
la_data_out[5] O
la_data_out[60] O
la_data_out[61] O
la_data_out[62] O
la_data_out[63] O
la_data_out[6] O
la_data_out[7] O
la_data_out[8] O
la_data_out[9] O
la_oenb[0] I
la_oenb[10] I
la_oenb[11] I
la_oenb[12] I
la_oenb[13] I
la_oenb[14] I
la_oenb[15] I
la_oenb[16] I
la_oenb[17] I
la_oenb[18] I
la_oenb[19] I
la_oenb[1] I
la_oenb[20] I
la_oenb[21] I
la_oenb[22] I
la_oenb[23] I
la_oenb[24] I
la_oenb[25] I
la_oenb[26] I
la_oenb[27] I
la_oenb[28] I
la_oenb[29] I
la_oenb[2] I
la_oenb[30] I
la_oenb[31] I
la_oenb[32] I
la_oenb[33] I
la_oenb[34] I
la_oenb[35] I
la_oenb[36] I
la_oenb[37] I
la_oenb[38] I
la_oenb[39] I
la_oenb[3] I
la_oenb[40] I
la_oenb[41] I
la_oenb[42] I
la_oenb[43] I
la_oenb[44] I
la_oenb[45] I
la_oenb[46] I
la_oenb[47] I
la_oenb[48] I
la_oenb[49] I
la_oenb[4] I
la_oenb[50] I
la_oenb[51] I
la_oenb[52] I
la_oenb[53] I
la_oenb[54] I
la_oenb[55] I
la_oenb[56] I
la_oenb[57] I
la_oenb[58] I
la_oenb[59] I
la_oenb[5] I
la_oenb[60] I
la_oenb[61] I
la_oenb[62] I
la_oenb[63] I
la_oenb[6] I
la_oenb[7] I
la_oenb[8] I
la_oenb[9] I
user_clock2 I
user_irq[0] O
user_irq[1] O
user_irq[2] O
wb_clk_i I
wb_rst_i I
wbs_ack_o O
wbs_adr_i[0] I
wbs_adr_i[10] I
wbs_adr_i[11] I
wbs_adr_i[12] I
wbs_adr_i[13] I
wbs_adr_i[14] I
wbs_adr_i[15] I
wbs_adr_i[16] I
wbs_adr_i[17] I
wbs_adr_i[18] I
wbs_adr_i[19] I
wbs_adr_i[1] I
wbs_adr_i[20] I
wbs_adr_i[21] I
wbs_adr_i[22] I
wbs_adr_i[23] I
wbs_adr_i[24] I
wbs_adr_i[25] I
wbs_adr_i[26] I
wbs_adr_i[27] I
wbs_adr_i[28] I
wbs_adr_i[29] I
wbs_adr_i[2] I
wbs_adr_i[30] I
wbs_adr_i[31] I
wbs_adr_i[3] I
wbs_adr_i[4] I
wbs_adr_i[5] I
wbs_adr_i[6] I
wbs_adr_i[7] I
wbs_adr_i[8] I
wbs_adr_i[9] I
wbs_cyc_i I
wbs_dat_i[0] I
wbs_dat_i[10] I
wbs_dat_i[11] I
wbs_dat_i[12] I
wbs_dat_i[13] I
wbs_dat_i[14] I
wbs_dat_i[15] I
wbs_dat_i[16] I
wbs_dat_i[17] I
wbs_dat_i[18] I
wbs_dat_i[19] I
wbs_dat_i[1] I
wbs_dat_i[20] I
wbs_dat_i[21] I
wbs_dat_i[22] I
wbs_dat_i[23] I
wbs_dat_i[24] I
wbs_dat_i[25] I
wbs_dat_i[26] I
wbs_dat_i[27] I
wbs_dat_i[28] I
wbs_dat_i[29] I
wbs_dat_i[2] I
wbs_dat_i[30] I
wbs_dat_i[31] I
wbs_dat_i[3] I
wbs_dat_i[4] I
wbs_dat_i[5] I
wbs_dat_i[6] I
wbs_dat_i[7] I
wbs_dat_i[8] I
wbs_dat_i[9] I
wbs_dat_o[0] O
wbs_dat_o[10] O
wbs_dat_o[11] O
wbs_dat_o[12] O
wbs_dat_o[13] O
wbs_dat_o[14] O
wbs_dat_o[15] O
wbs_dat_o[16] O
wbs_dat_o[17] O
wbs_dat_o[18] O
wbs_dat_o[19] O
wbs_dat_o[1] O
wbs_dat_o[20] O
wbs_dat_o[21] O
wbs_dat_o[22] O
wbs_dat_o[23] O
wbs_dat_o[24] O
wbs_dat_o[25] O
wbs_dat_o[26] O
wbs_dat_o[27] O
wbs_dat_o[28] O
wbs_dat_o[29] O
wbs_dat_o[2] O
wbs_dat_o[30] O
wbs_dat_o[31] O
wbs_dat_o[3] O
wbs_dat_o[4] O
wbs_dat_o[5] O
wbs_dat_o[6] O
wbs_dat_o[7] O
wbs_dat_o[8] O
wbs_dat_o[9] O
wbs_sel_i[0] I
wbs_sel_i[1] I
wbs_sel_i[2] I
wbs_sel_i[3] I
wbs_stb_i I
wbs_we_i I

*D_NET *34 0.170075
*CONN
*P io_in[5] I
*I *419:ACK I *D OQPSK_RCOSINE_ALL
*CAP
1 io_in[5] 0.0528899
2 *419:ACK 0.0010303
3 *34:9 0.00971533
4 *34:7 0.00868502
5 *34:5 0.0528899
6 *34:9 *63:11 0.00112456
7 *34:9 *70:9 0.0155996
8 *34:9 *72:9 0.0269927
9 *34:9 *101:9 0.00114729
10 *34:9 *102:9 0
*RES
1 io_in[5] *34:5 424.125 
2 *34:5 *34:7 4.5 
3 *34:7 *34:9 149.49 
4 *34:9 *419:ACK 10.665 
*END

*D_NET *35 0.17455
*CONN
*P io_in[6] I
*I *419:REQ_SAMPLE I *D OQPSK_RCOSINE_ALL
*CAP
1 io_in[6] 0.0662625
2 *419:REQ_SAMPLE 0.000468628
3 *35:9 0.0054098
4 *35:7 0.00494117
5 *35:5 0.0662625
6 *419:REQ_SAMPLE *419:RST 0.000146441
7 *35:9 *61:9 0.0310589
*RES
1 io_in[6] *35:5 530.865 
2 *35:5 *35:7 4.5 
3 *35:7 *35:9 77.13 
4 *35:9 *419:REQ_SAMPLE 8.865 
*END

*D_NET *36 0.1963
*CONN
*P io_in[7] I
*I *419:EN I *D OQPSK_RCOSINE_ALL
*CAP
1 io_in[7] 0.00285454
2 *419:EN 0.000559841
3 *36:17 0.00332953
4 *36:13 0.06125
5 *36:11 0.0613348
6 *419:EN *419:Bit_In 5.37994e-05
7 *419:EN *42:7 0.00014533
8 *36:11 io_oeb[6] 0.000263156
9 *36:11 *44:9 0.00901491
10 *36:13 *101:13 0.0429384
11 *36:17 *61:9 0.0023372
12 *36:17 *76:9 0.012218
*RES
1 io_in[7] *36:11 42.255 
2 *36:11 *36:13 523.35 
3 *36:13 *36:17 47.25 
4 *36:17 *419:EN 9.405 
*END

*D_NET *37 0.175988
*CONN
*P io_in[8] I
*I *419:Bit_In I *D OQPSK_RCOSINE_ALL
*CAP
1 io_in[8] 0.000237544
2 *419:Bit_In 0.000187508
3 *37:17 0.00631717
4 *37:15 0.00612966
5 *37:13 0.0596472
6 *37:11 0.0598847
7 *37:13 *100:13 0.0407287
8 *37:17 *49:11 0.00280144
9 *419:EN *419:Bit_In 5.37994e-05
*RES
1 io_in[8] *37:11 2.475 
2 *37:11 *37:13 528.21 
3 *37:13 *37:15 4.5 
4 *37:15 *37:17 49.05 
5 *37:17 *419:Bit_In 6.165 
*END

*D_NET *39 0.220004
*CONN
*P io_oeb[0] O
*I *419:io_oeb[0] O *D OQPSK_RCOSINE_ALL
*CAP
1 io_oeb[0] 0.0525324
2 *419:io_oeb[0] 0.00149057
3 *39:11 0.0525324
4 *39:9 0.0559532
5 *39:7 0.0574438
6 *39:7 *60:7 5.18032e-05
7 *39:9 *74:9 0
8 *39:9 *114:9 0
*RES
1 *419:io_oeb[0] *39:7 13.365 
2 *39:7 *39:9 454.59 
3 *39:9 *39:11 4.5 
4 *39:11 io_oeb[0] 421.425 
*END

*D_NET *40 0.257501
*CONN
*P io_oeb[10] O
*I *419:io_oeb[10] O *D OQPSK_RCOSINE_ALL
*CAP
1 io_oeb[10] 0.0664903
2 *419:io_oeb[10] 0.000609884
3 *40:11 0.0664903
4 *40:9 0.00435981
5 *40:7 0.00496969
6 *40:9 *42:9 0.0701968
7 *40:9 *76:9 0.0443845
*RES
1 *419:io_oeb[10] *40:7 9.045 
2 *40:7 *40:9 174.15 
3 *40:9 *40:11 4.5 
4 *40:11 io_oeb[10] 531.045 
*END

*D_NET *41 0.234199
*CONN
*P io_oeb[11] O
*I *419:io_oeb[11] O *D OQPSK_RCOSINE_ALL
*CAP
1 io_oeb[11] 0.00104753
2 *419:io_oeb[11] 0.0464996
3 *41:9 0.0158843
4 *41:7 0.0148368
5 *41:5 0.0464996
6 *41:5 *43:5 0.0139061
7 *41:9 *80:9 0.0955253
*RES
1 *419:io_oeb[11] *41:5 422.505 
2 *41:5 *41:7 4.5 
3 *41:7 *41:9 236.61 
4 *41:9 io_oeb[11] 12.285 
*END

*D_NET *42 0.305132
*CONN
*P io_oeb[12] O
*I *419:io_oeb[12] O *D OQPSK_RCOSINE_ALL
*CAP
1 io_oeb[12] 0.066348
2 *419:io_oeb[12] 0.00047969
3 *42:11 0.066348
4 *42:9 0.0294369
5 *42:7 0.0299166
6 *42:9 *46:9 0.0301035
7 *42:9 *61:9 0.00831947
8 *42:9 *76:9 0.0038379
9 *419:EN *42:7 0.00014533
10 *40:9 *42:9 0.0701968
*RES
1 *419:io_oeb[12] *42:7 8.865 
2 *42:7 *42:9 342.45 
3 *42:9 *42:11 4.5 
4 *42:11 io_oeb[12] 530.865 
*END

*D_NET *43 0.379864
*CONN
*P io_oeb[13] O
*I *419:io_oeb[13] O *D OQPSK_RCOSINE_ALL
*CAP
1 io_oeb[13] 0.00109069
2 *419:io_oeb[13] 0.0463507
3 *43:9 0.00716212
4 *43:7 0.00607143
5 *43:5 0.0463507
6 *43:5 *70:7 0.000177372
7 *43:9 *44:9 0.14654
8 *43:9 *80:9 0.112214
9 *41:5 *43:5 0.0139061
*RES
1 *419:io_oeb[13] *43:5 422.145 
2 *43:5 *43:7 4.5 
3 *43:7 *43:9 362.97 
4 *43:9 io_oeb[13] 12.645 
*END

*D_NET *44 0.344123
*CONN
*P io_oeb[14] O
*I *419:io_oeb[14] O *D OQPSK_RCOSINE_ALL
*CAP
1 io_oeb[14] 0.00111227
2 *419:io_oeb[14] 0.0525834
3 *44:9 0.0393944
4 *44:7 0.0382821
5 *44:5 0.0525834
6 *44:5 *63:11 0.000158587
7 *44:9 *80:9 0.00445313
8 *36:11 *44:9 0.00901491
9 *43:9 *44:9 0.14654
*RES
1 *419:io_oeb[14] *44:5 421.965 
2 *44:5 *44:7 4.5 
3 *44:7 *44:9 510.93 
4 *44:9 io_oeb[14] 12.825 
*END

*D_NET *45 0.201591
*CONN
*P io_oeb[15] O
*I *419:io_oeb[15] O *D OQPSK_RCOSINE_ALL
*CAP
1 io_oeb[15] 0.0580055
2 *419:io_oeb[15] 0.0427516
3 *45:7 0.0580055
4 *45:5 0.0427516
5 *45:5 *60:7 7.71681e-05
*RES
1 *419:io_oeb[15] *45:5 341.685 
2 *45:5 *45:7 4.5 
3 *45:7 io_oeb[15] 446.625 
*END

*D_NET *46 0.368335
*CONN
*P io_oeb[16] O
*I *419:io_oeb[16] O *D OQPSK_RCOSINE_ALL
*CAP
1 io_oeb[16] 0.0010524
2 *419:io_oeb[16] 0.000494891
3 *46:13 0.0093552
4 *46:11 0.00830281
5 *46:9 0.0613755
6 *46:7 0.0618704
7 *46:7 *75:7 0.00014107
8 *46:13 *47:9 0.0241983
9 *46:13 *52:13 0.0402965
10 *46:13 *53:13 0.0402236
11 *46:13 *83:13 0.0909204
12 *42:9 *46:9 0.0301035
*RES
1 *419:io_oeb[16] *46:7 8.865 
2 *46:7 *46:9 470.97 
3 *46:9 *46:11 4.5 
4 *46:11 *46:13 335.97 
5 *46:13 io_oeb[16] 12.645 
*END

*D_NET *47 0.159087
*CONN
*P io_oeb[17] O
*I *419:io_oeb[17] O *D OQPSK_RCOSINE_ALL
*CAP
1 io_oeb[17] 0.00100641
2 *419:io_oeb[17] 0.0548774
3 *47:9 0.0102587
4 *47:7 0.00925224
5 *47:5 0.0548774
6 *47:5 *68:7 0.000134992
7 *47:5 *85:7 0.000160546
8 *47:9 *52:13 0.00432109
9 *46:13 *47:9 0.0241983
*RES
1 *419:io_oeb[17] *47:5 422.505 
2 *47:5 *47:7 4.5 
3 *47:7 *47:9 140.13 
4 *47:9 io_oeb[17] 12.285 
*END

*D_NET *48 0.126941
*CONN
*P io_oeb[18] O
*I *419:io_oeb[18] O *D OQPSK_RCOSINE_ALL
*CAP
1 io_oeb[18] 0.0605273
2 *419:io_oeb[18] 0.00284696
3 *48:7 0.0633743
4 *48:7 *79:7 0.000192438
*RES
1 *419:io_oeb[18] *48:7 27.045 
2 *48:7 io_oeb[18] 464.985 
*END

*D_NET *49 0.128342
*CONN
*P io_oeb[19] O
*I *419:io_oeb[19] O *D OQPSK_RCOSINE_ALL
*CAP
1 io_oeb[19] 0.0559396
2 *419:io_oeb[19] 0.00480509
3 *49:17 0.0576702
4 *49:11 0.00653569
5 io_oeb[19] *71:7 0.000589644
6 *37:17 *49:11 0.00280144
*RES
1 *419:io_oeb[19] *49:11 45.495 
2 *49:11 *49:17 18.72 
3 *49:17 io_oeb[19] 431.325 
*END

*D_NET *50 0.219461
*CONN
*P io_oeb[1] O
*I *419:io_oeb[1] O *D OQPSK_RCOSINE_ALL
*CAP
1 io_oeb[1] 0.0535205
2 *419:io_oeb[1] 0.00120159
3 *50:15 0.0535205
4 *50:13 0.053615
5 *50:11 0.0548166
6 *50:11 *65:7 0.000137895
7 *50:11 *71:9 0.00156801
8 *50:13 *52:9 0.00108099
9 *50:13 *53:9 0
*RES
1 *419:io_oeb[1] *50:11 22.455 
2 *50:11 *50:13 414.45 
3 *50:13 *50:15 4.5 
4 *50:15 io_oeb[1] 429.525 
*END

*D_NET *51 0.194304
*CONN
*P io_oeb[20] O
*I *419:io_oeb[20] O *D OQPSK_RCOSINE_ALL
*CAP
1 io_oeb[20] 0.0692355
2 *419:io_oeb[20] 0.000696418
3 *51:11 0.0692355
4 *51:9 0.00654296
5 *51:7 0.00723938
6 *51:7 *58:7 0.000125841
7 *51:9 *91:9 0.0412285
*RES
1 *419:io_oeb[20] *51:7 9.765 
2 *51:7 *51:9 102.69 
3 *51:9 *51:11 4.5 
4 *51:11 io_oeb[20] 531.765 
*END

*D_NET *52 0.373052
*CONN
*P io_oeb[21] O
*I *419:io_oeb[21] O *D OQPSK_RCOSINE_ALL
*CAP
1 io_oeb[21] 0.0010294
2 *419:io_oeb[21] 9.4326e-05
3 *52:13 0.0197946
4 *52:11 0.0187652
5 *52:9 0.0293184
6 *52:7 0.0294127
7 *52:9 *53:9 0.178853
8 *52:9 *55:6 0.00398714
9 *52:9 *57:6 0.00858776
10 *52:9 *67:6 0.000951369
11 *52:13 *53:13 0.0365593
12 *46:13 *52:13 0.0402965
13 *47:9 *52:13 0.00432109
14 *50:13 *52:9 0.00108099
*RES
1 *419:io_oeb[21] *52:7 5.085 
2 *52:7 *52:9 455.49 
3 *52:9 *52:11 4.5 
4 *52:11 *52:13 296.01 
5 *52:13 io_oeb[21] 12.465 
*END

*D_NET *53 0.421976
*CONN
*P io_oeb[22] O
*I *419:io_oeb[22] O *D OQPSK_RCOSINE_ALL
*CAP
1 io_oeb[22] 0.00107539
2 *419:io_oeb[22] 9.57219e-05
3 *53:13 0.0337042
4 *53:11 0.0326288
5 *53:9 0.0309747
6 *53:7 0.0310704
7 *53:9 *55:6 0.0364555
8 *53:9 *67:6 0.000336093
9 *46:13 *53:13 0.0402236
10 *50:13 *53:9 0
11 *52:9 *53:9 0.178853
12 *52:13 *53:13 0.0365593
*RES
1 *419:io_oeb[22] *53:7 5.265 
2 *53:7 *53:9 464.67 
3 *53:9 *53:11 4.5 
4 *53:11 *53:13 402.21 
5 *53:13 io_oeb[22] 12.825 
*END

*D_NET *54 0.231843
*CONN
*P io_oeb[23] O
*I *419:io_oeb[23] O *D OQPSK_RCOSINE_ALL
*CAP
1 io_oeb[23] 0.0644655
2 *419:io_oeb[23] 0.0514562
3 *54:7 0.0644655
4 *54:5 0.0514562
*RES
1 *419:io_oeb[23] *54:5 413.145 
2 *54:5 *54:7 4.5 
3 *54:7 io_oeb[23] 496.305 
*END

*D_NET *55 0.325786
*CONN
*P io_oeb[24] O
*I *419:io_oeb[24] O *D OQPSK_RCOSINE_ALL
*CAP
1 io_oeb[24] 0.0656887
2 *419:io_oeb[24] 0
3 *55:8 0.0656887
4 *55:6 0.0378754
5 *55:4 0.0378754
6 *55:6 *57:6 0.0468067
7 *55:6 *67:6 0.0314089
8 *52:9 *55:6 0.00398714
9 *53:9 *55:6 0.0364555
*RES
1 *419:io_oeb[24] *55:4 4.5 
2 *55:4 *55:6 461.07 
3 *55:6 *55:8 4.5 
4 *55:8 io_oeb[24] 526.005 
*END

*D_NET *56 0.448456
*CONN
*P io_oeb[25] O
*I *419:io_oeb[25] O *D OQPSK_RCOSINE_ALL
*CAP
1 io_oeb[25] 0.000851032
2 *419:io_oeb[25] 0.000853202
3 *56:13 0.0151062
4 *56:11 0.0142551
5 *56:9 0.0169928
6 *56:7 0.017846
7 *56:7 *64:7 0.000139307
8 *56:9 *59:9 0.176447
9 *56:9 *68:9 0
10 *56:9 *90:9 0.0728221
11 *56:13 *59:13 0.0164396
12 *56:13 *94:13 0.116703
*RES
1 *419:io_oeb[25] *56:7 10.845 
2 *56:7 *56:9 439.83 
3 *56:9 *56:11 4.5 
4 *56:11 *56:13 296.91 
5 *56:13 io_oeb[25] 11.205 
*END

*D_NET *57 0.235508
*CONN
*P io_oeb[26] O
*I *419:io_oeb[26] O *D OQPSK_RCOSINE_ALL
*CAP
1 io_oeb[26] 0.0658116
2 *419:io_oeb[26] 0
3 *57:8 0.0658116
4 *57:6 0.0181154
5 *57:4 0.0181154
6 *57:6 *67:6 0.0122593
7 *52:9 *57:6 0.00858776
8 *55:6 *57:6 0.0468067
*RES
1 *419:io_oeb[26] *57:4 4.5 
2 *57:4 *57:6 277.47 
3 *57:6 *57:8 4.5 
4 *57:8 io_oeb[26] 526.365 
*END

*D_NET *58 0.337857
*CONN
*P io_oeb[27] O
*I *419:io_oeb[27] O *D OQPSK_RCOSINE_ALL
*CAP
1 io_oeb[27] 0.00120158
2 *419:io_oeb[27] 0.000511639
3 *58:13 0.0353866
4 *58:11 0.034185
5 *58:9 0.027272
6 *58:7 0.0277836
7 *58:9 *94:9 0.172316
8 *58:13 *59:13 0
9 *58:13 *65:13 0.0390742
10 *51:7 *58:7 0.000125841
*RES
1 *419:io_oeb[27] *58:7 8.865 
2 *58:7 *58:9 429.03 
3 *58:9 *58:11 4.5 
4 *58:11 *58:13 267.75 
5 *58:13 io_oeb[27] 13.365 
*END

*D_NET *59 0.275561
*CONN
*P io_oeb[28] O
*I *419:io_oeb[28] O *D OQPSK_RCOSINE_ALL
*CAP
1 io_oeb[28] 0.000911346
2 *419:io_oeb[28] 0.000862701
3 *59:13 0.00788644
4 *59:11 0.00697509
5 *59:9 0.012078
6 *59:7 0.0129407
7 *59:9 *64:9 0.0395788
8 *59:9 *65:9 8.12521e-05
9 *59:9 *68:9 0
10 *59:9 *71:9 0.000320878
11 *59:9 *90:9 0.00101698
12 *59:13 *94:13 2.14748e-05
13 *56:9 *59:9 0.176447
14 *56:13 *59:13 0.0164396
15 *58:13 *59:13 0
*RES
1 *419:io_oeb[28] *59:7 10.665 
2 *59:7 *59:9 444.87 
3 *59:9 *59:11 4.5 
4 *59:11 *59:13 92.97 
5 *59:13 io_oeb[28] 11.565 
*END

*D_NET *60 0.153719
*CONN
*P io_oeb[29] O
*I *419:io_oeb[29] O *D OQPSK_RCOSINE_ALL
*CAP
1 io_oeb[29] 0.0663617
2 *419:io_oeb[29] 0.000453571
3 *60:11 0.0663617
4 *60:9 0.00348708
5 *60:7 0.00394065
6 *60:9 *71:13 0.000961404
7 *60:9 *98:9 0.00655313
8 *60:9 *100:9 0.00547029
9 *39:7 *60:7 5.18032e-05
10 *45:5 *60:7 7.71681e-05
*RES
1 *419:io_oeb[29] *60:7 7.605 
2 *60:7 *60:9 48.51 
3 *60:9 *60:11 4.5 
4 *60:11 io_oeb[29] 529.605 
*END

*D_NET *61 0.254382
*CONN
*P io_oeb[2] O
*I *419:io_oeb[2] O *D OQPSK_RCOSINE_ALL
*CAP
1 io_oeb[2] 0.0661654
2 *419:io_oeb[2] 0.000609884
3 *61:11 0.0661654
4 *61:9 0.0290881
5 *61:7 0.029698
6 *61:9 *76:9 0.0209392
7 *35:9 *61:9 0.0310589
8 *36:17 *61:9 0.0023372
9 *42:9 *61:9 0.00831947
*RES
1 *419:io_oeb[2] *61:7 9.045 
2 *61:7 *61:9 315.45 
3 *61:9 *61:11 4.5 
4 *61:11 io_oeb[2] 531.045 
*END

*D_NET *62 0.118464
*CONN
*P io_oeb[30] O
*I *419:io_oeb[30] O *D OQPSK_RCOSINE_ALL
*CAP
1 io_oeb[30] 0.00157766
2 *419:io_oeb[30] 0.0522504
3 *62:11 0.00554851
4 *62:5 0.0562212
5 *62:11 *64:13 0.00286622
*RES
1 *419:io_oeb[30] *62:5 418.725 
2 *62:5 *62:11 41.31 
3 *62:11 io_oeb[30] 11.565 
*END

*D_NET *63 0.172642
*CONN
*P io_oeb[31] O
*I *419:io_oeb[31] O *D OQPSK_RCOSINE_ALL
*CAP
1 io_oeb[31] 0.0828613
2 *419:io_oeb[31] 0.00106185
3 *63:11 0.0839232
4 *63:11 *101:9 0.0014802
5 *63:11 *102:9 0.0020327
6 *34:9 *63:11 0.00112456
7 *44:5 *63:11 0.000158587
*RES
1 *419:io_oeb[31] *63:11 28.575 
2 *63:11 io_oeb[31] 531.765 
*END

*D_NET *64 0.202585
*CONN
*P io_oeb[32] O
*I *419:io_oeb[32] O *D OQPSK_RCOSINE_ALL
*CAP
1 io_oeb[32] 0.0018737
2 *419:io_oeb[32] 0.000706333
3 *64:13 0.0251547
4 *64:11 0.023281
5 *64:9 0.0129387
6 *64:7 0.013645
7 *64:9 *65:9 0.080641
8 *64:9 *71:9 0.00175994
9 *56:7 *64:7 0.000139307
10 *59:9 *64:9 0.0395788
11 *62:11 *64:13 0.00286622
*RES
1 *419:io_oeb[32] *64:7 9.945 
2 *64:7 *64:9 436.05 
3 *64:9 *64:11 4.5 
4 *64:11 *64:13 178.29 
5 *64:13 io_oeb[32] 16.065 
*END

*D_NET *65 0.427288
*CONN
*P io_oeb[33] O
*I *419:io_oeb[33] O *D OQPSK_RCOSINE_ALL
*CAP
1 io_oeb[33] 0.00122267
2 *419:io_oeb[33] 0.000557166
3 *65:13 0.0334215
4 *65:11 0.0321988
5 *65:9 0.00285327
6 *65:7 0.00341044
7 *65:7 *68:7 0.000134992
8 *65:9 *68:9 0.20374
9 *65:9 *71:9 0.0298146
10 *50:11 *65:7 0.000137895
11 *58:13 *65:13 0.0390742
12 *59:9 *65:9 8.12521e-05
13 *64:9 *65:9 0.080641
*RES
1 *419:io_oeb[33] *65:7 9.585 
2 *65:7 *65:9 508.77 
3 *65:9 *65:11 4.5 
4 *65:11 *65:13 246.15 
5 *65:13 io_oeb[33] 13.545 
*END

*D_NET *66 0.188828
*CONN
*P io_oeb[34] O
*I *419:io_oeb[34] O *D OQPSK_RCOSINE_ALL
*CAP
1 io_oeb[34] 0.000948596
2 *419:io_oeb[34] 0.0531044
3 *66:17 0.0269086
4 *66:15 0.0275604
5 *66:11 0.00594168
6 *66:5 0.0574457
7 *66:11 *93:13 0.00308485
8 *66:15 io_out[31] 0.00488861
9 *66:15 *68:13 0.000833952
10 *66:15 *93:13 0.000456557
11 *66:17 *68:13 0.00738767
12 *66:17 *93:13 0.000267179
*RES
1 *419:io_oeb[34] *66:5 424.125 
2 *66:5 *66:11 39.33 
3 *66:11 *66:15 19.26 
4 *66:15 *66:17 211.14 
5 *66:17 io_oeb[34] 10.665 
*END

*D_NET *67 0.318633
*CONN
*P io_oeb[35] O
*I *419:io_oeb[35] O *D OQPSK_RCOSINE_ALL
*CAP
1 io_oeb[35] 0.0655661
2 *419:io_oeb[35] 0
3 *67:8 0.0655661
4 *67:6 0.0243748
5 *67:4 0.0243748
6 *67:6 *103:6 0.000842634
7 *67:6 *104:6 0.0929533
8 *52:9 *67:6 0.000951369
9 *53:9 *67:6 0.000336093
10 *55:6 *67:6 0.0314089
11 *57:6 *67:6 0.0122593
*RES
1 *419:io_oeb[35] *67:4 4.5 
2 *67:4 *67:6 365.31 
3 *67:6 *67:8 4.5 
4 *67:8 io_oeb[35] 526.185 
*END

*D_NET *68 0.453672
*CONN
*P io_oeb[36] O
*I *419:io_oeb[36] O *D OQPSK_RCOSINE_ALL
*CAP
1 io_oeb[36] 0.000773549
2 *419:io_oeb[36] 0.000529469
3 *68:13 0.04553
4 *68:11 0.0447565
5 *68:9 0.0329055
6 *68:7 0.0334349
7 *68:13 io_out[30] 0.000359868
8 *68:13 *93:13 0.0415999
9 *68:13 *94:13 0.0415503
10 *47:5 *68:7 0.000134992
11 *56:9 *68:9 0
12 *59:9 *68:9 0
13 *65:7 *68:7 0.000134992
14 *65:9 *68:9 0.20374
15 *66:15 *68:13 0.000833952
16 *66:17 *68:13 0.00738767
*RES
1 *419:io_oeb[36] *68:7 9.405 
2 *68:7 *68:9 510.39 
3 *68:9 *68:11 4.5 
4 *68:11 *68:13 449.91 
5 *68:13 io_oeb[36] 10.845 
*END

*D_NET *69 0.218461
*CONN
*P io_oeb[37] O
*I *419:io_oeb[37] O *D OQPSK_RCOSINE_ALL
*CAP
1 io_oeb[37] 0.0550313
2 *419:io_oeb[37] 0.0541363
3 *69:7 0.0550313
4 *69:5 0.0541363
5 *69:5 *73:7 0.000125841
*RES
1 *419:io_oeb[37] *69:5 417.105 
2 *69:5 *69:7 4.5 
3 *69:7 io_oeb[37] 442.125 
*END

*D_NET *70 0.216237
*CONN
*P io_oeb[3] O
*I *419:io_oeb[3] O *D OQPSK_RCOSINE_ALL
*CAP
1 io_oeb[3] 0.0528298
2 *419:io_oeb[3] 0.000882235
3 *70:11 0.0528298
4 *70:9 0.019995
5 *70:7 0.0208773
6 *70:9 *72:9 0.0269845
7 *70:9 *74:9 0.0046453
8 *70:9 *78:9 0.000609106
9 *70:9 *79:9 0.0117161
10 *70:9 *81:9 0.00909058
11 *34:9 *70:9 0.0155996
12 *43:5 *70:7 0.000177372
*RES
1 *419:io_oeb[3] *70:7 11.025 
2 *70:7 *70:9 275.49 
3 *70:9 *70:11 4.5 
4 *70:11 io_oeb[3] 423.765 
*END

*D_NET *71 0.214368
*CONN
*P io_oeb[4] O
*I *419:io_oeb[4] O *D OQPSK_RCOSINE_ALL
*CAP
1 io_oeb[4] 0.0532137
2 *419:io_oeb[4] 0.000498627
3 *71:15 0.0532137
4 *71:13 0.0293906
5 *71:11 0.0293906
6 *71:9 0.0041772
7 *71:7 0.00467583
8 *71:9 *85:9 0.00108909
9 *71:9 *86:9 7.03023e-05
10 *71:9 *87:11 0.00213533
11 *71:9 *89:9 0
12 *71:9 *90:9 0
13 *71:13 *100:9 0.00149836
14 io_oeb[19] *71:7 0.000589644
15 *50:11 *71:9 0.00156801
16 *59:9 *71:9 0.000320878
17 *60:9 *71:13 0.000961404
18 *64:9 *71:9 0.00175994
19 *65:9 *71:9 0.0298146
*RES
1 *419:io_oeb[4] *71:7 9.765 
2 *71:7 *71:9 86.85 
3 *71:9 *71:11 4.5 
4 *71:11 *71:13 223.65 
5 *71:13 *71:15 4.5 
6 *71:15 io_oeb[4] 426.825 
*END

*D_NET *72 0.161843
*CONN
*P io_oeb[5] O
*I *419:io_oeb[5] O *D OQPSK_RCOSINE_ALL
*CAP
1 io_oeb[5] 0.0528683
2 *419:io_oeb[5] 0.000778476
3 *72:11 0.0528683
4 *72:9 0.000190617
5 *72:7 0.000969094
6 *72:7 *74:7 0.000191203
7 *34:9 *72:9 0.0269927
8 *70:9 *72:9 0.0269845
*RES
1 *419:io_oeb[5] *72:7 10.845 
2 *72:7 *72:9 66.87 
3 *72:9 *72:11 4.5 
4 *72:11 io_oeb[5] 423.945 
*END

*D_NET *73 0.153143
*CONN