*SPEF "ieee 1481-1999"
*DESIGN "user_project_wrapper"
*DATE "11:11:11 Fri 11 11, 1111"
*VENDOR "OpenRCX"
*PROGRAM "Parallel Extraction"
*VERSION "1.0"
*DESIGN_FLOW "NAME_SCOPE LOCAL" "PIN_CAP NONE"
*DIVIDER /
*DELIMITER :
*BUS_DELIMITER []
*T_UNIT 1 NS
*C_UNIT 1 PF
*R_UNIT 1 OHM
*L_UNIT 1 HENRY

*NAME_MAP
*1 io_in[0]
*2 io_in[10]
*3 io_in[11]
*4 io_in[12]
*5 io_in[13]
*6 io_in[14]
*7 io_in[15]
*8 io_in[16]
*9 io_in[17]
*10 io_in[18]
*11 io_in[19]
*12 io_in[1]
*13 io_in[20]
*14 io_in[21]
*15 io_in[22]
*16 io_in[23]
*17 io_in[24]
*18 io_in[25]
*19 io_in[26]
*20 io_in[27]
*21 io_in[28]
*22 io_in[29]
*23 io_in[2]
*24 io_in[30]
*25 io_in[31]
*26 io_in[32]
*27 io_in[33]
*28 io_in[34]
*29 io_in[35]
*30 io_in[36]
*31 io_in[37]
*32 io_in[3]
*33 io_in[4]
*34 io_in[5]
*35 io_in[6]
*36 io_in[7]
*37 io_in[8]
*38 io_in[9]
*39 io_oeb[0]
*40 io_oeb[10]
*41 io_oeb[11]
*42 io_oeb[12]
*43 io_oeb[13]
*44 io_oeb[14]
*45 io_oeb[15]
*46 io_oeb[16]
*47 io_oeb[17]
*48 io_oeb[18]
*49 io_oeb[19]
*50 io_oeb[1]
*51 io_oeb[20]
*52 io_oeb[21]
*53 io_oeb[22]
*54 io_oeb[23]
*55 io_oeb[24]
*56 io_oeb[25]
*57 io_oeb[26]
*58 io_oeb[27]
*59 io_oeb[28]
*60 io_oeb[29]
*61 io_oeb[2]
*62 io_oeb[30]
*63 io_oeb[31]
*64 io_oeb[32]
*65 io_oeb[33]
*66 io_oeb[34]
*67 io_oeb[35]
*68 io_oeb[36]
*69 io_oeb[37]
*70 io_oeb[3]
*71 io_oeb[4]
*72 io_oeb[5]
*73 io_oeb[6]
*74 io_oeb[7]
*75 io_oeb[8]
*76 io_oeb[9]
*77 io_out[0]
*78 io_out[10]
*79 io_out[11]
*80 io_out[12]
*81 io_out[13]
*82 io_out[14]
*83 io_out[15]
*84 io_out[16]
*85 io_out[17]
*86 io_out[18]
*87 io_out[19]
*88 io_out[1]
*89 io_out[20]
*90 io_out[21]
*91 io_out[22]
*92 io_out[23]
*93 io_out[24]
*94 io_out[25]
*95 io_out[26]
*96 io_out[27]
*97 io_out[28]
*98 io_out[29]
*99 io_out[2]
*100 io_out[30]
*101 io_out[31]
*102 io_out[32]
*103 io_out[33]
*104 io_out[34]
*105 io_out[35]
*106 io_out[36]
*107 io_out[37]
*108 io_out[3]
*109 io_out[4]
*110 io_out[5]
*111 io_out[6]
*112 io_out[7]
*113 io_out[8]
*114 io_out[9]
*115 la_data_in[0]
*116 la_data_in[10]
*117 la_data_in[11]
*118 la_data_in[12]
*119 la_data_in[13]
*120 la_data_in[14]
*121 la_data_in[15]
*122 la_data_in[16]
*123 la_data_in[17]
*124 la_data_in[18]
*125 la_data_in[19]
*126 la_data_in[1]
*127 la_data_in[20]
*128 la_data_in[21]
*129 la_data_in[22]
*130 la_data_in[23]
*131 la_data_in[24]
*132 la_data_in[25]
*133 la_data_in[26]
*134 la_data_in[27]
*135 la_data_in[28]
*136 la_data_in[29]
*137 la_data_in[2]
*138 la_data_in[30]
*139 la_data_in[31]
*140 la_data_in[32]
*141 la_data_in[33]
*142 la_data_in[34]
*143 la_data_in[35]
*144 la_data_in[36]
*145 la_data_in[37]
*146 la_data_in[38]
*147 la_data_in[39]
*148 la_data_in[3]
*149 la_data_in[40]
*150 la_data_in[41]
*151 la_data_in[42]
*152 la_data_in[43]
*153 la_data_in[44]
*154 la_data_in[45]
*155 la_data_in[46]
*156 la_data_in[47]
*157 la_data_in[48]
*158 la_data_in[49]
*159 la_data_in[4]
*160 la_data_in[50]
*161 la_data_in[51]
*162 la_data_in[52]
*163 la_data_in[53]
*164 la_data_in[54]
*165 la_data_in[55]
*166 la_data_in[56]
*167 la_data_in[57]
*168 la_data_in[58]
*169 la_data_in[59]
*170 la_data_in[5]
*171 la_data_in[60]
*172 la_data_in[61]
*173 la_data_in[62]
*174 la_data_in[63]
*175 la_data_in[6]
*176 la_data_in[7]
*177 la_data_in[8]
*178 la_data_in[9]
*179 la_data_out[0]
*180 la_data_out[10]
*181 la_data_out[11]
*182 la_data_out[12]
*183 la_data_out[13]
*184 la_data_out[14]
*185 la_data_out[15]
*186 la_data_out[16]
*187 la_data_out[17]
*188 la_data_out[18]
*189 la_data_out[19]
*190 la_data_out[1]
*191 la_data_out[20]
*192 la_data_out[21]
*193 la_data_out[22]
*194 la_data_out[23]
*195 la_data_out[24]
*196 la_data_out[25]
*197 la_data_out[26]
*198 la_data_out[27]
*199 la_data_out[28]
*200 la_data_out[29]
*201 la_data_out[2]
*202 la_data_out[30]
*203 la_data_out[31]
*204 la_data_out[32]
*205 la_data_out[33]
*206 la_data_out[34]
*207 la_data_out[35]
*208 la_data_out[36]
*209 la_data_out[37]
*210 la_data_out[38]
*211 la_data_out[39]
*212 la_data_out[3]
*213 la_data_out[40]
*214 la_data_out[41]
*215 la_data_out[42]
*216 la_data_out[43]
*217 la_data_out[44]
*218 la_data_out[45]
*219 la_data_out[46]
*220 la_data_out[47]
*221 la_data_out[48]
*222 la_data_out[49]
*223 la_data_out[4]
*224 la_data_out[50]
*225 la_data_out[51]
*226 la_data_out[52]
*227 la_data_out[53]
*228 la_data_out[54]
*229 la_data_out[55]
*230 la_data_out[56]
*231 la_data_out[57]
*232 la_data_out[58]
*233 la_data_out[59]
*234 la_data_out[5]
*235 la_data_out[60]
*236 la_data_out[61]
*237 la_data_out[62]
*238 la_data_out[63]
*239 la_data_out[6]
*240 la_data_out[7]
*241 la_data_out[8]
*242 la_data_out[9]
*243 la_oenb[0]
*244 la_oenb[10]
*245 la_oenb[11]
*246 la_oenb[12]
*247 la_oenb[13]
*248 la_oenb[14]
*249 la_oenb[15]
*250 la_oenb[16]
*251 la_oenb[17]
*252 la_oenb[18]
*253 la_oenb[19]
*254 la_oenb[1]
*255 la_oenb[20]
*256 la_oenb[21]
*257 la_oenb[22]
*258 la_oenb[23]
*259 la_oenb[24]
*260 la_oenb[25]
*261 la_oenb[26]
*262 la_oenb[27]
*263 la_oenb[28]
*264 la_oenb[29]
*265 la_oenb[2]
*266 la_oenb[30]
*267 la_oenb[31]
*268 la_oenb[32]
*269 la_oenb[33]
*270 la_oenb[34]
*271 la_oenb[35]
*272 la_oenb[36]
*273 la_oenb[37]
*274 la_oenb[38]
*275 la_oenb[39]
*276 la_oenb[3]
*277 la_oenb[40]
*278 la_oenb[41]
*279 la_oenb[42]
*280 la_oenb[43]
*281 la_oenb[44]
*282 la_oenb[45]
*283 la_oenb[46]
*284 la_oenb[47]
*285 la_oenb[48]
*286 la_oenb[49]
*287 la_oenb[4]
*288 la_oenb[50]
*289 la_oenb[51]
*290 la_oenb[52]
*291 la_oenb[53]
*292 la_oenb[54]
*293 la_oenb[55]
*294 la_oenb[56]
*295 la_oenb[57]
*296 la_oenb[58]
*297 la_oenb[59]
*298 la_oenb[5]
*299 la_oenb[60]
*300 la_oenb[61]
*301 la_oenb[62]
*302 la_oenb[63]
*303 la_oenb[6]
*304 la_oenb[7]
*305 la_oenb[8]
*306 la_oenb[9]
*307 user_clock2
*308 user_irq[0]
*309 user_irq[1]
*310 user_irq[2]
*313 wb_clk_i
*314 wb_rst_i
*315 wbs_ack_o
*316 wbs_adr_i[0]
*317 wbs_adr_i[10]
*318 wbs_adr_i[11]
*319 wbs_adr_i[12]
*320 wbs_adr_i[13]
*321 wbs_adr_i[14]
*322 wbs_adr_i[15]
*323 wbs_adr_i[16]
*324 wbs_adr_i[17]
*325 wbs_adr_i[18]
*326 wbs_adr_i[19]
*327 wbs_adr_i[1]
*328 wbs_adr_i[20]
*329 wbs_adr_i[21]
*330 wbs_adr_i[22]
*331 wbs_adr_i[23]
*332 wbs_adr_i[24]
*333 wbs_adr_i[25]
*334 wbs_adr_i[26]
*335 wbs_adr_i[27]
*336 wbs_adr_i[28]
*337 wbs_adr_i[29]
*338 wbs_adr_i[2]
*339 wbs_adr_i[30]
*340 wbs_adr_i[31]
*341 wbs_adr_i[3]
*342 wbs_adr_i[4]
*343 wbs_adr_i[5]
*344 wbs_adr_i[6]
*345 wbs_adr_i[7]
*346 wbs_adr_i[8]
*347 wbs_adr_i[9]
*348 wbs_cyc_i
*349 wbs_dat_i[0]
*350 wbs_dat_i[10]
*351 wbs_dat_i[11]
*352 wbs_dat_i[12]
*353 wbs_dat_i[13]
*354 wbs_dat_i[14]
*355 wbs_dat_i[15]
*356 wbs_dat_i[16]
*357 wbs_dat_i[17]
*358 wbs_dat_i[18]
*359 wbs_dat_i[19]
*360 wbs_dat_i[1]
*361 wbs_dat_i[20]
*362 wbs_dat_i[21]
*363 wbs_dat_i[22]
*364 wbs_dat_i[23]
*365 wbs_dat_i[24]
*366 wbs_dat_i[25]
*367 wbs_dat_i[26]
*368 wbs_dat_i[27]
*369 wbs_dat_i[28]
*370 wbs_dat_i[29]
*371 wbs_dat_i[2]
*372 wbs_dat_i[30]
*373 wbs_dat_i[31]
*374 wbs_dat_i[3]
*375 wbs_dat_i[4]
*376 wbs_dat_i[5]
*377 wbs_dat_i[6]
*378 wbs_dat_i[7]
*379 wbs_dat_i[8]
*380 wbs_dat_i[9]
*381 wbs_dat_o[0]
*382 wbs_dat_o[10]
*383 wbs_dat_o[11]
*384 wbs_dat_o[12]
*385 wbs_dat_o[13]
*386 wbs_dat_o[14]
*387 wbs_dat_o[15]
*388 wbs_dat_o[16]
*389 wbs_dat_o[17]
*390 wbs_dat_o[18]
*391 wbs_dat_o[19]
*392 wbs_dat_o[1]
*393 wbs_dat_o[20]
*394 wbs_dat_o[21]
*395 wbs_dat_o[22]
*396 wbs_dat_o[23]
*397 wbs_dat_o[24]
*398 wbs_dat_o[25]
*399 wbs_dat_o[26]
*400 wbs_dat_o[27]
*401 wbs_dat_o[28]
*402 wbs_dat_o[29]
*403 wbs_dat_o[2]
*404 wbs_dat_o[30]
*405 wbs_dat_o[31]
*406 wbs_dat_o[3]
*407 wbs_dat_o[4]
*408 wbs_dat_o[5]
*409 wbs_dat_o[6]
*410 wbs_dat_o[7]
*411 wbs_dat_o[8]
*412 wbs_dat_o[9]
*413 wbs_sel_i[0]
*414 wbs_sel_i[1]
*415 wbs_sel_i[2]
*416 wbs_sel_i[3]
*417 wbs_stb_i
*418 wbs_we_i
*419 oqpsk

*PORTS
io_in[0] I
io_in[10] I
io_in[11] I
io_in[12] I
io_in[13] I
io_in[14] I
io_in[15] I
io_in[16] I
io_in[17] I
io_in[18] I
io_in[19] I
io_in[1] I
io_in[20] I
io_in[21] I
io_in[22] I
io_in[23] I
io_in[24] I
io_in[25] I
io_in[26] I
io_in[27] I
io_in[28] I
io_in[29] I
io_in[2] I
io_in[30] I
io_in[31] I
io_in[32] I
io_in[33] I
io_in[34] I
io_in[35] I
io_in[36] I
io_in[37] I
io_in[3] I
io_in[4] I
io_in[5] I
io_in[6] I
io_in[7] I
io_in[8] I
io_in[9] I
io_oeb[0] O
io_oeb[10] O
io_oeb[11] O
io_oeb[12] O
io_oeb[13] O
io_oeb[14] O
io_oeb[15] O
io_oeb[16] O
io_oeb[17] O
io_oeb[18] O
io_oeb[19] O
io_oeb[1] O
io_oeb[20] O
io_oeb[21] O
io_oeb[22] O
io_oeb[23] O
io_oeb[24] O
io_oeb[25] O
io_oeb[26] O
io_oeb[27] O
io_oeb[28] O
io_oeb[29] O
io_oeb[2] O
io_oeb[30] O
io_oeb[31] O
io_oeb[32] O
io_oeb[33] O
io_oeb[34] O
io_oeb[35] O
io_oeb[36] O
io_oeb[37] O
io_oeb[3] O
io_oeb[4] O
io_oeb[5] O
io_oeb[6] O
io_oeb[7] O
io_oeb[8] O
io_oeb[9] O
io_out[0] O
io_out[10] O
io_out[11] O
io_out[12] O
io_out[13] O
io_out[14] O
io_out[15] O
io_out[16] O
io_out[17] O
io_out[18] O
io_out[19] O
io_out[1] O
io_out[20] O
io_out[21] O
io_out[22] O
io_out[23] O
io_out[24] O
io_out[25] O
io_out[26] O
io_out[27] O
io_out[28] O
io_out[29] O
io_out[2] O
io_out[30] O
io_out[31] O
io_out[32] O
io_out[33] O
io_out[34] O
io_out[35] O
io_out[36] O
io_out[37] O
io_out[3] O
io_out[4] O
io_out[5] O
io_out[6] O
io_out[7] O
io_out[8] O
io_out[9] O
la_data_in[0] I
la_data_in[10] I
la_data_in[11] I
la_data_in[12] I
la_data_in[13] I
la_data_in[14] I
la_data_in[15] I
la_data_in[16] I
la_data_in[17] I
la_data_in[18] I
la_data_in[19] I
la_data_in[1] I
la_data_in[20] I
la_data_in[21] I
la_data_in[22] I
la_data_in[23] I
la_data_in[24] I
la_data_in[25] I
la_data_in[26] I
la_data_in[27] I
la_data_in[28] I
la_data_in[29] I
la_data_in[2] I
la_data_in[30] I
la_data_in[31] I
la_data_in[32] I
la_data_in[33] I
la_data_in[34] I
la_data_in[35] I
la_data_in[36] I
la_data_in[37] I
la_data_in[38] I
la_data_in[39] I
la_data_in[3] I
la_data_in[40] I
la_data_in[41] I
la_data_in[42] I
la_data_in[43] I
la_data_in[44] I
la_data_in[45] I
la_data_in[46] I
la_data_in[47] I
la_data_in[48] I
la_data_in[49] I
la_data_in[4] I
la_data_in[50] I
la_data_in[51] I
la_data_in[52] I
la_data_in[53] I
la_data_in[54] I
la_data_in[55] I
la_data_in[56] I
la_data_in[57] I
la_data_in[58] I
la_data_in[59] I
la_data_in[5] I
la_data_in[60] I
la_data_in[61] I
la_data_in[62] I
la_data_in[63] I
la_data_in[6] I
la_data_in[7] I
la_data_in[8] I
la_data_in[9] I
la_data_out[0] O
la_data_out[10] O
la_data_out[11] O
la_data_out[12] O
la_data_out[13] O
la_data_out[14] O
la_data_out[15] O
la_data_out[16] O
la_data_out[17] O
la_data_out[18] O
la_data_out[19] O
la_data_out[1] O
la_data_out[20] O
la_data_out[21] O
la_data_out[22] O
la_data_out[23] O
la_data_out[24] O
la_data_out[25] O
la_data_out[26] O
la_data_out[27] O
la_data_out[28] O
la_data_out[29] O
la_data_out[2] O
la_data_out[30] O
la_data_out[31] O
la_data_out[32] O
la_data_out[33] O
la_data_out[34] O
la_data_out[35] O
la_data_out[36] O
la_data_out[37] O
la_data_out[38] O
la_data_out[39] O
la_data_out[3] O
la_data_out[40] O
la_data_out[41] O
la_data_out[42] O
la_data_out[43] O
la_data_out[44] O
la_data_out[45] O
la_data_out[46] O
la_data_out[47] O
la_data_out[48] O
la_data_out[49] O
la_data_out[4] O
la_data_out[50] O
la_data_out[51] O
la_data_out[52] O
la_data_out[53] O
la_data_out[54] O
la_data_out[55] O
la_data_out[56] O
la_data_out[57] O
la_data_out[58] O
la_data_out[59] O
la_data_out[5] O
la_data_out[60] O
la_data_out[61] O
la_data_out[62] O
la_data_out[63] O
la_data_out[6] O
la_data_out[7] O
la_data_out[8] O
la_data_out[9] O
la_oenb[0] I
la_oenb[10] I
la_oenb[11] I
la_oenb[12] I
la_oenb[13] I
la_oenb[14] I
la_oenb[15] I
la_oenb[16] I
la_oenb[17] I
la_oenb[18] I
la_oenb[19] I
la_oenb[1] I
la_oenb[20] I
la_oenb[21] I
la_oenb[22] I
la_oenb[23] I
la_oenb[24] I
la_oenb[25] I
la_oenb[26] I
la_oenb[27] I
la_oenb[28] I
la_oenb[29] I
la_oenb[2] I
la_oenb[30] I
la_oenb[31] I
la_oenb[32] I
la_oenb[33] I
la_oenb[34] I
la_oenb[35] I
la_oenb[36] I
la_oenb[37] I
la_oenb[38] I
la_oenb[39] I
la_oenb[3] I
la_oenb[40] I
la_oenb[41] I
la_oenb[42] I
la_oenb[43] I
la_oenb[44] I
la_oenb[45] I
la_oenb[46] I
la_oenb[47] I
la_oenb[48] I
la_oenb[49] I
la_oenb[4] I
la_oenb[50] I
la_oenb[51] I
la_oenb[52] I
la_oenb[53] I
la_oenb[54] I
la_oenb[55] I
la_oenb[56] I
la_oenb[57] I
la_oenb[58] I
la_oenb[59] I
la_oenb[5] I
la_oenb[60] I
la_oenb[61] I
la_oenb[62] I
la_oenb[63] I
la_oenb[6] I
la_oenb[7] I
la_oenb[8] I
la_oenb[9] I
user_clock2 I
user_irq[0] O
user_irq[1] O
user_irq[2] O
wb_clk_i I
wb_rst_i I
wbs_ack_o O
wbs_adr_i[0] I
wbs_adr_i[10] I
wbs_adr_i[11] I
wbs_adr_i[12] I
wbs_adr_i[13] I
wbs_adr_i[14] I
wbs_adr_i[15] I
wbs_adr_i[16] I
wbs_adr_i[17] I
wbs_adr_i[18] I
wbs_adr_i[19] I
wbs_adr_i[1] I
wbs_adr_i[20] I
wbs_adr_i[21] I
wbs_adr_i[22] I
wbs_adr_i[23] I
wbs_adr_i[24] I
wbs_adr_i[25] I
wbs_adr_i[26] I
wbs_adr_i[27] I
wbs_adr_i[28] I
wbs_adr_i[29] I
wbs_adr_i[2] I
wbs_adr_i[30] I
wbs_adr_i[31] I
wbs_adr_i[3] I
wbs_adr_i[4] I
wbs_adr_i[5] I
wbs_adr_i[6] I
wbs_adr_i[7] I
wbs_adr_i[8] I
wbs_adr_i[9] I
wbs_cyc_i I
wbs_dat_i[0] I
wbs_dat_i[10] I
wbs_dat_i[11] I
wbs_dat_i[12] I
wbs_dat_i[13] I
wbs_dat_i[14] I
wbs_dat_i[15] I
wbs_dat_i[16] I
wbs_dat_i[17] I
wbs_dat_i[18] I
wbs_dat_i[19] I
wbs_dat_i[1] I
wbs_dat_i[20] I
wbs_dat_i[21] I
wbs_dat_i[22] I
wbs_dat_i[23] I
wbs_dat_i[24] I
wbs_dat_i[25] I
wbs_dat_i[26] I
wbs_dat_i[27] I
wbs_dat_i[28] I
wbs_dat_i[29] I
wbs_dat_i[2] I
wbs_dat_i[30] I
wbs_dat_i[31] I
wbs_dat_i[3] I
wbs_dat_i[4] I
wbs_dat_i[5] I
wbs_dat_i[6] I
wbs_dat_i[7] I
wbs_dat_i[8] I
wbs_dat_i[9] I
wbs_dat_o[0] O
wbs_dat_o[10] O
wbs_dat_o[11] O
wbs_dat_o[12] O
wbs_dat_o[13] O
wbs_dat_o[14] O
wbs_dat_o[15] O
wbs_dat_o[16] O
wbs_dat_o[17] O
wbs_dat_o[18] O
wbs_dat_o[19] O
wbs_dat_o[1] O
wbs_dat_o[20] O
wbs_dat_o[21] O
wbs_dat_o[22] O
wbs_dat_o[23] O
wbs_dat_o[24] O
wbs_dat_o[25] O
wbs_dat_o[26] O
wbs_dat_o[27] O
wbs_dat_o[28] O
wbs_dat_o[29] O
wbs_dat_o[2] O
wbs_dat_o[30] O
wbs_dat_o[31] O
wbs_dat_o[3] O
wbs_dat_o[4] O
wbs_dat_o[5] O
wbs_dat_o[6] O
wbs_dat_o[7] O
wbs_dat_o[8] O
wbs_dat_o[9] O
wbs_sel_i[0] I
wbs_sel_i[1] I
wbs_sel_i[2] I
wbs_sel_i[3] I
wbs_stb_i I
wbs_we_i I

*D_NET *34 0.159088
*CONN
*P io_in[5] I
*I *419:ACK I *D OQPSK_RCOSINE_ALL
*CAP
1 io_in[5] 0.0502787
2 *419:ACK 0.000951562
3 *34:9 0.00914166
4 *34:7 0.0081901
5 *34:5 0.0502787
6 *34:9 *63:11 0.00108027
7 *34:9 *70:9 0.01454
8 *34:9 *72:9 0.0235214
9 *34:9 *101:11 0.00110546
10 *34:9 *102:9 0
*RES
1 io_in[5] *34:5 358.15 
2 *34:5 *34:7 4.5 
3 *34:7 *34:9 126.236 
4 *34:9 *419:ACK 9.706 
*END

*D_NET *35 0.1634
*CONN
*P io_in[6] I
*I *419:REQ_SAMPLE I *D OQPSK_RCOSINE_ALL
*CAP
1 io_in[6] 0.0629825
2 *419:REQ_SAMPLE 0.000445607
3 *35:9 0.00511524
4 *35:7 0.00466964
5 *35:5 0.0629825
6 *419:REQ_SAMPLE *419:RST 0.000141082
7 *35:9 *61:9 0.0270632
*RES
1 io_in[6] *35:5 448.286 
2 *35:5 *35:7 4.5 
3 *35:7 *35:9 65.132 
4 *35:9 *419:REQ_SAMPLE 8.186 
*END

*D_NET *36 0.181436
*CONN
*P io_in[7] I
*I *419:EN I *D OQPSK_RCOSINE_ALL
*CAP
1 io_in[7] 0.00269613
2 *419:EN 0.00314175
3 *36:13 0.0587582
4 *36:11 0.0583126
5 *419:EN *419:Bit_In 5.1876e-05
6 *419:EN *42:7 0.000140036
7 *419:EN *61:9 0.00217872
8 *419:EN *76:9 0.0106461
9 *36:11 io_oeb[6] 0.000233584
10 *36:11 *44:9 0.00785453
11 *36:13 *101:13 0.0374226
*RES
1 io_in[7] *36:11 37.082 
2 *36:11 *36:13 441.94 
3 *36:13 *419:EN 49.242 
*END

*D_NET *37 0.163912
*CONN
*P io_in[8] I
*I *419:Bit_In I *D OQPSK_RCOSINE_ALL
*CAP
1 io_in[8] 0.000227135
2 *419:Bit_In 0.000177173
3 *37:17 0.0059908
4 *37:13 0.0625036
5 *37:11 0.0569171
6 *37:13 *100:13 0.0354956
7 *37:17 *49:11 0.00254882
8 *419:EN *419:Bit_In 5.1876e-05
*RES
1 io_in[8] *37:11 2.09 
2 *37:11 *37:13 446.044 
3 *37:13 *37:17 45.92 
4 *37:17 *419:Bit_In 5.906 
*END

*D_NET *39 0.209081
*CONN
*P io_oeb[0] O
*I *419:io_oeb[0] O *D OQPSK_RCOSINE_ALL
*CAP
1 io_oeb[0] 0.0499418
2 *419:io_oeb[0] 0.00136962
3 *39:11 0.0499418
4 *39:9 0.0532031
5 *39:7 0.0545728
6 *39:7 *60:9 5.16826e-05
7 *39:9 *74:9 0
8 *39:9 *114:9 0
*RES
1 *419:io_oeb[0] *39:7 11.986 
2 *39:7 *39:9 383.876 
3 *39:9 *39:11 4.5 
4 *39:11 io_oeb[0] 355.87 
*END

*D_NET *40 0.235495
*CONN
*P io_oeb[10] O
*I *419:io_oeb[10] O *D OQPSK_RCOSINE_ALL
*CAP
1 io_oeb[10] 0.0631692
2 *419:io_oeb[10] 0.000572605
3 *40:11 0.0631692
4 *40:9 0.00408571
5 *40:7 0.00465831
6 *40:9 *42:9 0.0611664
7 *40:9 *76:9 0.0386734
*RES
1 *419:io_oeb[10] *40:7 8.338 
2 *40:7 *40:9 147.06 
3 *40:9 *40:11 4.5 
4 *40:11 io_oeb[10] 448.438 
*END

*D_NET *41 0.21489
*CONN
*P io_oeb[11] O
*I *419:io_oeb[11] O *D OQPSK_RCOSINE_ALL
*CAP
1 io_oeb[11] 0.000984899
2 *419:io_oeb[11] 0.0440687
3 *41:9 0.0150538
4 *41:7 0.0140689
5 *41:5 0.0440687
6 *41:5 *43:5 0.0134049
7 *41:9 *80:9 0.0832397
*RES
1 *419:io_oeb[11] *41:5 356.782 
2 *41:5 *41:7 4.5 
3 *41:7 *41:9 199.804 
4 *41:9 io_oeb[11] 11.074 
*END

*D_NET *42 0.282386
*CONN
*P io_oeb[12] O
*I *419:io_oeb[12] O *D OQPSK_RCOSINE_ALL
*CAP
1 io_oeb[12] 0.0630511
2 *419:io_oeb[12] 0.000454617
3 *42:11 0.0630511
4 *42:9 0.0279257
5 *42:7 0.0283803
6 *42:9 *46:9 0.0273889
7 *42:9 *61:9 0.00724982
8 *42:9 *76:9 0.00357762
9 *419:EN *42:7 0.000140036
10 *40:9 *42:9 0.0611664
*RES
1 *419:io_oeb[12] *42:7 8.186 
2 *42:7 *42:9 289.18 
3 *42:9 *42:11 4.5 
4 *42:11 io_oeb[12] 448.286 
*END

*D_NET *43 0.340285
*CONN
*P io_oeb[13] O
*I *419:io_oeb[13] O *D OQPSK_RCOSINE_ALL
*CAP
1 io_oeb[13] 0.00102617
2 *419:io_oeb[13] 0.0439282
3 *43:9 0.00668779
4 *43:7 0.00566162
5 *43:5 0.0439282
6 *43:5 *70:7 0.000172469
7 *43:9 *44:9 0.127694
8 *43:9 *80:9 0.0977816
9 *41:5 *43:5 0.0134049
*RES
1 *419:io_oeb[13] *43:5 356.478 
2 *43:5 *43:7 4.5 
3 *43:7 *43:9 306.508 
4 *43:9 io_oeb[13] 11.378 
*END

*D_NET *44 0.31456
*CONN
*P io_oeb[14] O
*I *419:io_oeb[14] O *D OQPSK_RCOSINE_ALL
*CAP
1 io_oeb[14] 0.00104681
2 *419:io_oeb[14] 0.0499806
3 *44:9 0.0373728
4 *44:7 0.036326
5 *44:5 0.0499806
6 *44:5 *63:11 0.000153854
7 *44:9 *80:9 0.00415155
8 *36:11 *44:9 0.00785453
9 *43:9 *44:9 0.127694
*RES
1 *419:io_oeb[14] *44:5 356.326 
2 *44:5 *44:7 4.5 
3 *44:7 *44:9 431.452 
4 *44:9 io_oeb[14] 11.53 
*END

*D_NET *45 0.191473
*CONN
*P io_oeb[15] O
*I *419:io_oeb[15] O *D OQPSK_RCOSINE_ALL
*CAP
1 io_oeb[15] 0.0550837
2 *419:io_oeb[15] 0.0406149
3 *45:7 0.0550837
4 *45:5 0.0406149
5 *45:5 *60:9 7.52754e-05
*RES
1 *419:io_oeb[15] *45:5 288.534 
2 *45:5 *45:7 4.5 
3 *45:7 io_oeb[15] 377.15 
*END

*D_NET *46 0.334361
*CONN
*P io_oeb[16] O
*I *419:io_oeb[16] O *D OQPSK_RCOSINE_ALL
*CAP
1 io_oeb[16] 0.000999175
2 *419:io_oeb[16] 0.000466776
3 *46:13 0.00871674
4 *46:11 0.00771757
5 *46:9 0.0582561
6 *46:7 0.0587228
7 *46:7 *75:7 0.000136011
8 *46:13 *47:9 0.0225643
9 *46:13 *52:13 0.0351146
10 *46:13 *53:13 0.035051
11 *46:13 *83:13 0.0792271
12 *42:9 *46:9 0.0273889
*RES
1 *419:io_oeb[16] *46:7 8.186 
2 *46:7 *46:9 397.708 
3 *46:9 *46:11 4.5 
4 *46:11 *46:13 283.708 
5 *46:13 io_oeb[16] 11.378 
*END

*D_NET *47 0.15012
*CONN
*P io_oeb[17] O
*I *419:io_oeb[17] O *D OQPSK_RCOSINE_ALL
*CAP
1 io_oeb[17] 0.000955437
2 *419:io_oeb[17] 0.0520917
3 *47:9 0.00965971
4 *47:7 0.00870428
5 *47:5 0.0520917
6 *47:5 *68:7 0.000131154
7 *47:5 *85:7 0.000156194
8 *47:9 *52:13 0.00376594
9 *46:13 *47:9 0.0225643
*RES
1 *419:io_oeb[17] *47:5 356.782 
2 *47:5 *47:7 4.5 
3 *47:7 *47:9 118.332 
4 *47:9 io_oeb[17] 11.074 
*END

*D_NET *48 0.12048
*CONN
*P io_oeb[18] O
*I *419:io_oeb[18] O *D OQPSK_RCOSINE_ALL
*CAP
1 io_oeb[18] 0.0574599
2 *419:io_oeb[18] 0.00268678
3 *48:7 0.0601467
4 *48:7 *79:7 0.000186785
*RES
1 *419:io_oeb[18] *48:7 23.538 
2 *48:7 io_oeb[18] 392.654 
*END

*D_NET *49 0.121716
*CONN
*P io_oeb[19] O
*I *419:io_oeb[19] O *D OQPSK_RCOSINE_ALL
*CAP
1 io_oeb[19] 0.0530978
2 *419:io_oeb[19] 0.00455151
3 *49:17 0.0547499
4 *49:11 0.00620354
5 io_oeb[19] *71:7 0.000564443
6 *37:17 *49:11 0.00254882
*RES
1 *419:io_oeb[19] *49:11 39.818 
2 *49:11 *49:17 16.508 
3 *49:17 io_oeb[19] 364.23 
*END

*D_NET *50 0.208391
*CONN
*P io_oeb[1] O
*I *419:io_oeb[1] O *D OQPSK_RCOSINE_ALL
*CAP
1 io_oeb[1] 0.0508843
2 *419:io_oeb[1] 0.00112634
3 *50:15 0.0508843
4 *50:13 0.050862
5 *50:11 0.0519883
6 *50:11 *65:7 0.000133892
7 *50:11 *71:9 0.00146296
8 *50:13 *52:9 0.00104874
9 *50:13 *53:9 0
*RES
1 *419:io_oeb[1] *50:11 20.362 
2 *50:11 *50:13 349.98 
3 *50:13 *50:15 4.5 
4 *50:15 io_oeb[1] 362.71 
*END

*D_NET *51 0.181194
*CONN
*P io_oeb[20] O
*I *419:io_oeb[20] O *D OQPSK_RCOSINE_ALL
*CAP
1 io_oeb[20] 0.0657234
2 *419:io_oeb[20] 0.000649108
3 *51:11 0.0657234
4 *51:9 0.00620008
5 *51:7 0.00684919
6 *51:7 *58:7 0.000121939
7 *51:9 *91:9 0.0359264
*RES
1 *419:io_oeb[20] *51:7 8.946 
2 *51:7 *51:9 86.716 
3 *51:9 *51:11 4.5 
4 *51:11 io_oeb[20] 449.046 
*END

*D_NET *52 0.334632
*CONN
*P io_oeb[21] O
*I *419:io_oeb[21] O *D OQPSK_RCOSINE_ALL
*CAP
1 io_oeb[21] 0.000977306
2 *419:io_oeb[21] 8.79518e-05
3 *52:13 0.0186506
4 *52:11 0.0176733
5 *52:9 0.0277813
6 *52:7 0.0278693
7 *52:9 *53:9 0.155544
8 *52:9 *55:6 0.00353909
9 *52:9 *57:6 0.00762273
10 *52:9 *67:6 0.000865579
11 *52:13 *53:13 0.0340912
12 *46:13 *52:13 0.0351146
13 *47:9 *52:13 0.00376594
14 *50:13 *52:9 0.00104874
*RES
1 *419:io_oeb[21] *52:7 4.994 
2 *52:7 *52:9 384.636 
3 *52:9 *52:11 4.5 
4 *52:11 *52:13 249.964 
5 *52:13 io_oeb[21] 11.226 
*END

*D_NET *53 0.380838
*CONN
*P io_oeb[22] O
*I *419:io_oeb[22] O *D OQPSK_RCOSINE_ALL
*CAP
1 io_oeb[22] 0.00102104
2 *419:io_oeb[22] 9.11723e-05
3 *53:13 0.031882
4 *53:11 0.030861
5 *53:9 0.0293694
6 *53:7 0.0294606
7 *53:9 *55:6 0.0331681
8 *53:9 *67:6 0.000298326
9 *46:13 *53:13 0.035051
10 *50:13 *53:9 0
11 *52:9 *53:9 0.155544
12 *52:13 *53:13 0.0340912
*RES
1 *419:io_oeb[22] *53:7 5.146 
2 *53:7 *53:9 392.388 
3 *53:9 *53:11 4.5 
4 *53:11 *53:13 339.644 
5 *53:13 io_oeb[22] 11.53 
*END

*D_NET *54 0.220287
*CONN
*P io_oeb[23] O
*I *419:io_oeb[23] O *D OQPSK_RCOSINE_ALL
*CAP
1 io_oeb[23] 0.0612184
2 *419:io_oeb[23] 0.0489252
3 *54:7 0.0612184
4 *54:5 0.0489252
*RES
1 *419:io_oeb[23] *54:5 348.878 
2 *54:5 *54:7 4.5 
3 *54:7 io_oeb[23] 419.102 
*END

*D_NET *55 0.304389
*CONN
*P io_oeb[24] O
*I *419:io_oeb[24] O *D OQPSK_RCOSINE_ALL
*CAP
1 io_oeb[24] 0.0624325
2 *419:io_oeb[24] 0
3 *55:8 0.0624325
4 *55:6 0.0359117
5 *55:4 0.0359117
6 *55:6 *57:6 0.0436248
7 *55:6 *67:6 0.0273685
8 *52:9 *55:6 0.00353909
9 *53:9 *55:6 0.0331681
*RES
1 *419:io_oeb[24] *55:4 4.5 
2 *55:4 *55:6 389.348 
3 *55:6 *55:8 4.5 
4 *55:8 io_oeb[24] 444.182 
*END

*D_NET *56 0.396352
*CONN
*P io_oeb[25] O
*I *419:io_oeb[25] O *D OQPSK_RCOSINE_ALL
*CAP
1 io_oeb[25] 0.000807066
2 *419:io_oeb[25] 0.000795231
3 *56:13 0.0142629
4 *56:11 0.0134558
5 *56:9 0.0160353
6 *56:7 0.0168305
7 *56:7 *64:7 0.000135626
8 *56:9 *59:9 0.153755
9 *56:9 *68:9 0
10 *56:9 *90:9 0.0634586
11 *56:13 *59:13 0.0153206
12 *56:13 *94:13 0.101495
*RES
1 *419:io_oeb[25] *56:7 9.858 
2 *56:7 *56:9 371.412 
3 *56:9 *56:11 4.5 
4 *56:11 *56:13 250.724 
5 *56:13 io_oeb[25] 10.162 
*END

*D_NET *57 0.221267
*CONN
*P io_oeb[26] O
*I *419:io_oeb[26] O *D OQPSK_RCOSINE_ALL
*CAP
1 io_oeb[26] 0.0625377
2 *419:io_oeb[26] 0
3 *57:8 0.0625377
4 *57:6 0.0171307
5 *57:4 0.0171307
6 *57:6 *67:6 0.0106829
7 *52:9 *57:6 0.00762273
8 *55:6 *57:6 0.0436248
*RES
1 *419:io_oeb[26] *57:4 4.5 
2 *57:4 *57:6 234.308 
3 *57:6 *57:8 4.5 
4 *57:8 io_oeb[26] 444.486 
*END

*D_NET *58 0.302647
*CONN
*P io_oeb[27] O
*I *419:io_oeb[27] O *D OQPSK_RCOSINE_ALL
*CAP
1 io_oeb[27] 0.00112838
2 *419:io_oeb[27] 0.000483672
3 *58:13 0.0328977
4 *58:11 0.0317694
5 *58:9 0.0258519
6 *58:7 0.0263356
7 *58:9 *94:9 0.150157
8 *58:13 *59:13 0
9 *58:13 *65:13 0.0339008
10 *51:7 *58:7 0.000121939
*RES
1 *419:io_oeb[27] *58:7 8.186 
2 *58:7 *58:9 362.292 
3 *58:9 *58:11 4.5 
4 *58:11 *58:13 226.1 
5 *58:13 io_oeb[27] 11.986 
*END

*D_NET *59 0.247124
*CONN
*P io_oeb[28] O
*I *419:io_oeb[28] O *D OQPSK_RCOSINE_ALL
*CAP
1 io_oeb[28] 0.000862268
2 *419:io_oeb[28] 0.000810571
3 *59:13 0.00742726
4 *59:11 0.00656499
5 *59:9 0.0111656
6 *59:7 0.0119762
7 *59:9 *64:9 0.0378851
8 *59:9 *65:9 7.84203e-05
9 *59:9 *68:9 0
10 *59:9 *71:9 0.000308663
11 *59:9 *90:9 0.000948122
12 *59:13 *94:13 2.05156e-05
13 *56:9 *59:9 0.153755
14 *56:13 *59:13 0.0153206
15 *58:13 *59:13 0
*RES
1 *419:io_oeb[28] *59:7 9.706 
2 *59:7 *59:9 375.668 
3 *59:9 *59:11 4.5 
4 *59:11 *59:13 78.508 
5 *59:13 io_oeb[28] 10.466 
*END

*D_NET *60 0.145327
*CONN
*P io_oeb[29] O
*I *419:io_oeb[29] O *D OQPSK_RCOSINE_ALL
*CAP
1 io_oeb[29] 0.0630394
2 *419:io_oeb[29] 0.00368811
3 *60:11 0.0630394
4 *60:9 0.00368811
5 *60:9 *71:13 0.000868378
6 *60:9 *98:9 0.00610912
7 *60:9 *100:9 0.00476707
8 *39:7 *60:9 5.16826e-05
9 *45:5 *60:9 7.52754e-05
*RES
1 *419:io_oeb[29] *60:9 48.086 
2 *60:9 *60:11 4.5 
3 *60:11 io_oeb[29] 447.222 
*END

*D_NET *61 0.236943
*CONN
*P io_oeb[2] O
*I *419:io_oeb[2] O *D OQPSK_RCOSINE_ALL
*CAP
1 io_oeb[2] 0.0629071
2 *419:io_oeb[2] 0.000572605
3 *61:11 0.0629071
4 *61:9 0.027623
5 *61:7 0.0281956
6 *61:9 *76:9 0.0182462
7 *419:EN *61:9 0.00217872
8 *35:9 *61:9 0.0270632
9 *42:9 *61:9 0.00724982
*RES
1 *419:io_oeb[2] *61:7 8.338 
2 *61:7 *61:9 266.38 
3 *61:9 *61:11 4.5 
4 *61:11 io_oeb[2] 448.438 
*END

*D_NET *62 0.112448
*CONN
*P io_oeb[30] O
*I *419:io_oeb[30] O *D OQPSK_RCOSINE_ALL
*CAP
1 io_oeb[30] 0.00525455
2 *419:io_oeb[30] 0.0496658
3 *62:5 0.0549203
4 io_oeb[30] *64:13 0.00260776
*RES
1 *419:io_oeb[30] *62:5 353.59 
2 *62:5 io_oeb[30] 46.05 
*END

*D_NET *63 0.161178
*CONN
*P io_oeb[31] O
*I *419:io_oeb[31] O *D OQPSK_RCOSINE_ALL
*CAP
1 io_oeb[31] 0.0773934
2 *419:io_oeb[31] 0.000986694
3 *63:11 0.0783801
4 *63:11 *101:11 0.00128982
5 *63:11 *102:9 0.00189414
6 *34:9 *63:11 0.00108027
7 *44:5 *63:11 0.000153854
*RES
1 *419:io_oeb[31] *63:11 25.53 
2 *63:11 io_oeb[31] 449.046 
*END

*D_NET *64 0.189844
*CONN
*P io_oeb[32] O
*I *419:io_oeb[32] O *D OQPSK_RCOSINE_ALL
*CAP
1 io_oeb[32] 0.00173874
2 *419:io_oeb[32] 0.000660253
3 *64:13 0.0238286
4 *64:11 0.0220898
5 *64:9 0.0117534
6 *64:7 0.0124137
7 *64:9 *65:9 0.0751973
8 *64:9 *71:9 0.00153348
9 io_oeb[30] *64:13 0.00260776
10 *56:7 *64:7 0.000135626
11 *59:9 *64:9 0.0378851
*RES
1 *419:io_oeb[32] *64:7 9.098 
2 *64:7 *64:9 368.22 
3 *64:9 *64:11 4.5 
4 *64:11 *64:13 150.556 
5 *64:13 io_oeb[32] 14.266 
*END

*D_NET *65 0.38044
*CONN
*P io_oeb[33] O
*I *419:io_oeb[33] O *D OQPSK_RCOSINE_ALL
*CAP
1 io_oeb[33] 0.0011485
2 *419:io_oeb[33] 0.000523325
3 *65:13 0.0309468
4 *65:11 0.0297983
5 *65:9 0.00227256
6 *65:7 0.00279588
7 *65:7 *68:7 0.000131154
8 *65:9 *68:9 0.177536
9 *65:9 *71:9 0.0259772
10 *50:11 *65:7 0.000133892
11 *58:13 *65:13 0.0339008
12 *59:9 *65:9 7.84203e-05
13 *64:9 *65:9 0.0751973
*RES
1 *419:io_oeb[33] *65:7 8.794 
2 *65:7 *65:9 429.628 
3 *65:9 *65:11 4.5 
4 *65:11 *65:13 207.86 
5 *65:13 io_oeb[33] 12.138 
*END

*D_NET *66 0.17836
*CONN
*P io_oeb[34] O
*I *419:io_oeb[34] O *D OQPSK_RCOSINE_ALL
*CAP
1 io_oeb[34] 0.000887891
2 *419:io_oeb[34] 0.05045
3 *66:17 0.0256165
4 *66:15 0.024768
5 *66:13 0.00574228
6 *66:5 0.0561529
7 *66:13 io_out[31] 0.00425952
8 *66:13 *68:13 0.00075875
9 *66:13 *93:13 0.00301493
10 *66:17 *68:13 0.00646603
11 *66:17 *93:13 0.000243086
*RES
1 *419:io_oeb[34] *66:5 358.15 
2 *66:5 *66:13 49.948 
3 *66:13 *66:15 0.228 
4 *66:15 *66:17 178.296 
5 *66:17 io_oeb[34] 9.706 
*END

*D_NET *67 0.291892
*CONN
*P io_oeb[35] O
*I *419:io_oeb[35] O *D OQPSK_RCOSINE_ALL
*CAP
1 io_oeb[35] 0.0623365
2 *419:io_oeb[35] 0
3 *67:8 0.0623365
4 *67:6 0.0231107
5 *67:4 0.0231107
6 *67:6 *103:6 0.000784801
7 *67:6 *104:6 0.0809978
8 *52:9 *67:6 0.000865579
9 *53:9 *67:6 0.000298326
10 *55:6 *67:6 0.0273685
11 *57:6 *67:6 0.0106829
*RES
1 *419:io_oeb[35] *67:4 4.5 
2 *67:4 *67:6 308.484 
3 *67:6 *67:8 4.5 
4 *67:8 io_oeb[35] 444.334 
*END

*D_NET *68 0.407398
*CONN
*P io_oeb[36] O
*I *419:io_oeb[36] O *D OQPSK_RCOSINE_ALL
*CAP
1 io_oeb[36] 0.000737922
2 *419:io_oeb[36] 0.000497859
3 *68:13 0.0432231
4 *68:11 0.0424851
5 *68:9 0.03115
6 *68:7 0.0316479
7 *68:13 io_out[30] 0.000319428
8 *68:13 *93:13 0.0361782
9 *68:13 *94:13 0.0361354
10 *47:5 *68:7 0.000131154
11 *56:9 *68:9 0
12 *59:9 *68:9 0
13 *65:7 *68:7 0.000131154
14 *65:9 *68:9 0.177536
15 *66:13 *68:13 0.00075875
16 *66:17 *68:13 0.00646603
*RES
1 *419:io_oeb[36] *68:7 8.642 
2 *68:7 *68:9 430.996 
3 *68:9 *68:11 4.5 
4 *68:11 *68:13 379.924 
5 *68:13 io_oeb[36] 9.858 
*END

*D_NET *69 0.207594
*CONN
*P io_oeb[37] O
*I *419:io_oeb[37] O *D OQPSK_RCOSINE_ALL
*CAP
1 io_oeb[37] 0.0523292
2 *419:io_oeb[37] 0.0514067
3 *69:7 0.0523292
4 *69:5 0.0514067
5 *69:5 *73:7 0.000121939
*RES
1 *419:io_oeb[37] *69:5 352.222 
2 *69:5 *69:7 4.5 
3 *69:7 io_oeb[37] 373.35 
*END

*D_NET *70 0.201288
*CONN
*P io_oeb[3] O
*I *419:io_oeb[3] O *D OQPSK_RCOSINE_ALL
*CAP
1 io_oeb[3] 0.0502237
2 *419:io_oeb[3] 0.000815289
3 *70:11 0.0502237
4 *70:9 0.0189207
5 *70:7 0.019736
6 *70:9 *72:9 0.0235141
7 *70:9 *74:9 0.00444733
8 *70:9 *78:9 0.000567919
9 *70:9 *79:9 0.0102076
10 *70:9 *81:9 0.00791931
11 *34:9 *70:9 0.01454
12 *43:5 *70:7 0.000172469
*RES
1 *419:io_oeb[3] *70:7 10.01 
2 *70:7 *70:9 232.636 
3 *70:9 *70:11 4.5 
4 *70:11 io_oeb[3] 357.846 
*END

*D_NET *71 0.200848
*CONN
*P io_oeb[4] O
*I *419:io_oeb[4] O *D OQPSK_RCOSINE_ALL
*CAP
1 io_oeb[4] 0.0505884
2 *419:io_oeb[4] 0.000463609
3 *71:15 0.0505884
4 *71:13 0.0278587
5 *71:11 0.0278587
6 *71:9 0.00388598
7 *71:7 0.00434959
8 *71:9 *85:9 0.00104929
9 *71:9 *86:9 6.81137e-05
10 *71:9 *87:11 0.00205218
11 *71:9 *89:9 0
12 *71:9 *90:9 0
13 *71:13 *100:9 0.00137031
14 io_oeb[19] *71:7 0.000564443
15 *50:11 *71:9 0.00146296
16 *59:9 *71:9 0.000308663
17 *60:9 *71:13 0.000868378
18 *64:9 *71:9 0.00153348
19 *65:9 *71:9 0.0259772
*RES
1 *419:io_oeb[4] *71:7 8.946 
2 *71:7 *71:9 73.34 
3 *71:9 *71:11 4.5 
4 *71:11 *71:13 188.86 
5 *71:13 *71:15 4.5 
6 *71:15 io_oeb[4] 360.43 
*END

*D_NET *72 0.149502
*CONN
*P io_oeb[5] O
*I *419:io_oeb[5] O *D OQPSK_RCOSINE_ALL
*CAP
1 io_oeb[5] 0.050258
2 *419:io_oeb[5] 0.00072746
3 *72:11 0.050258
4 *72:9 0.00015516
5 *72:7 0.000882621
6 *72:7 *74:7 0.000185356
7 *34:9 *72:9 0.0235214
8 *70:9 *72:9 0.0235141
*RES
1 *419:io_oeb[5] *72:7 9.858 
2 *72:7 *72:9 56.468 
3 *72:9 *72:11 4.5 
4 *72:11 io_oeb[5] 357.998 
*END

*D_NET *73 0.143177
*CONN
*P io_oeb[6] O
*I *419:io_oeb[6] O *D OQPSK_RCOSINE_ALL
*CAP
1 io_oeb[6] 0.00221681
2 *419:io_oeb[6] 0.000483672
3 *73:9 0.0582934
4 *73:7 0.0565603